# generated using pymatgen
data_H22C81
_symmetry_space_group_name_H-M   'P 1'
_cell_length_a   10.00000000
_cell_length_b   41.10890000
_cell_length_c   26.08012509
_cell_angle_alpha   90.00000000
_cell_angle_beta   90.00000000
_cell_angle_gamma   90.00000000
_symmetry_Int_Tables_number   1
_chemical_formula_structural   H22C81
_chemical_formula_sum   'H44 C162'
_cell_volume   10721.25254376
_cell_formula_units_Z   2
loop_
 _symmetry_equiv_pos_site_id
 _symmetry_equiv_pos_as_xyz
  1  'x, y, z'
loop_
 _atom_site_type_symbol
 _atom_site_label
 _atom_site_symmetry_multiplicity
 _atom_site_fract_x
 _atom_site_fract_y
 _atom_site_fract_z
 _atom_site_occupancy
  C  C0  1  0.50000000  0.28390918  0.30602112  1
  C  C1  1  0.50000000  0.28887604  0.63921386  1
  C  C2  1  0.50000000  0.28769787  0.97089634  1
  C  C3  1  0.50000000  0.34378464  0.30583608  1
  C  C4  1  0.50000000  0.34901292  0.63865011  1
  C  C5  1  0.50000000  0.34800522  0.97267465  1
  C  C6  1  0.50000000  0.40346107  0.30417098  1
  C  C7  1  0.50000000  0.40871261  0.63902354  1
  C  C8  1  0.50000000  0.40860067  0.97358506  1
  C  C9  1  0.50000000  0.46875846  0.64040730  1
  C  C10  1  0.50000000  0.47024192  0.96553814  1
  C  C11  1  0.50000000  0.52946790  0.64181873  1
  C  C12  1  0.50000000  0.52940253  0.96636918  1
  C  C13  1  0.50000000  0.58943877  0.64149107  1
  C  C14  1  0.50000000  0.58933397  0.96698700  1
  C  C15  1  0.50000000  0.64972786  0.64011961  1
  C  C16  1  0.50000000  0.64874294  0.96700014  1
  C  C17  1  0.50000000  0.72766772  0.30484780  1
  C  C18  1  0.50000000  0.70965104  0.63941968  1
  C  C19  1  0.50000000  0.71053880  0.97184062  1
  C  C20  1  0.50000000  0.28656121  0.02664106  1
  C  C21  1  0.50000000  0.28453084  0.36214341  1
  C  C22  1  0.50000000  0.28905734  0.69492980  1
  C  C23  1  0.50000000  0.34665536  0.02769873  1
  C  C24  1  0.50000000  0.34440791  0.36081451  1
  C  C25  1  0.50000000  0.34904421  0.69411281  1
  C  C26  1  0.50000000  0.40696440  0.02956905  1
  C  C27  1  0.50000000  0.40368417  0.35890071  1
  C  C28  1  0.50000000  0.40871363  0.69439241  1
  C  C29  1  0.50000000  0.46871008  0.69538856  1
  C  C30  1  0.50000000  0.52928152  0.69621977  1
  C  C31  1  0.50000000  0.58957305  0.69592576  1
  C  C32  1  0.50000000  0.64978815  0.69510711  1
  C  C33  1  0.50000000  0.71501539  0.02829837  1
  C  C34  1  0.50000000  0.72516729  0.36098471  1
  C  C35  1  0.50000000  0.70981173  0.69503428  1
  C  C36  1  0.50000000  0.25685687  0.05464716  1
  C  C37  1  0.50000000  0.25581280  0.39236465  1
  C  C38  1  0.50000000  0.25987226  0.72347029  1
  C  C39  1  0.50000000  0.31601384  0.05509776  1
  C  C40  1  0.50000000  0.31476664  0.38936537  1
  C  C41  1  0.50000000  0.31904780  0.72226551  1
  C  C42  1  0.50000000  0.37623786  0.05625828  1
  C  C43  1  0.50000000  0.37471037  0.38815664  1
  C  C44  1  0.50000000  0.37885046  0.72210032  1
  C  C45  1  0.50000000  0.43456173  0.06262082  1
  C  C46  1  0.50000000  0.43329168  0.38540785  1
  C  C47  1  0.50000000  0.43868947  0.72246284  1
  C  C48  1  0.50000000  0.49888485  0.72271130  1
  C  C49  1  0.50000000  0.55941244  0.72282759  1
  C  C50  1  0.50000000  0.61987293  0.72253652  1
  C  C51  1  0.50000000  0.68940821  0.06419110  1
  C  C52  1  0.50000000  0.69420526  0.38349386  1
  C  C53  1  0.50000000  0.67989258  0.72248586  1
  C  C54  1  0.50000000  0.74640471  0.05144595  1
  C  C55  1  0.50000000  0.75142660  0.39568974  1
  C  C56  1  0.50000000  0.73901480  0.72336709  1
  C  C57  1  0.50000000  0.25585398  0.10764215  1
  C  C58  1  0.50000000  0.25678919  0.44538807  1
  C  C59  1  0.50000000  0.25984009  0.77641717  1
  C  C60  1  0.50000000  0.31478709  0.11067863  1
  C  C61  1  0.50000000  0.31597935  0.44492298  1
  C  C62  1  0.50000000  0.31903385  0.77768529  1
  C  C63  1  0.50000000  0.37474094  0.11191528  1
  C  C64  1  0.50000000  0.37617558  0.44378695  1
  C  C65  1  0.50000000  0.37883040  0.77783195  1
  C  C66  1  0.50000000  0.43331009  0.11477736  1
  C  C67  1  0.50000000  0.43447176  0.43755372  1
  C  C68  1  0.50000000  0.43867938  0.77754359  1
  C  C69  1  0.50000000  0.49888868  0.77729989  1
  C  C70  1  0.50000000  0.55941501  0.77716480  1
  C  C71  1  0.50000000  0.61987592  0.77743984  1
  C  C72  1  0.50000000  0.69409968  0.11649973  1
  C  C73  1  0.50000000  0.68944793  0.43577731  1
  C  C74  1  0.50000000  0.67990844  0.77738493  1
  C  C75  1  0.50000000  0.75133440  0.10436670  1
  C  C76  1  0.50000000  0.74642769  0.44858373  1
  C  C77  1  0.50000000  0.73902671  0.77641951  1
  C  C78  1  0.50000000  0.28454021  0.13791414  1
  C  C79  1  0.50000000  0.28652459  0.47336268  1
  C  C80  1  0.50000000  0.28902131  0.80499047  1
  C  C81  1  0.50000000  0.34442776  0.13923479  1
  C  C82  1  0.50000000  0.34660898  0.47231917  1
  C  C83  1  0.50000000  0.34904015  0.80583970  1
  C  C84  1  0.50000000  0.40368871  0.14122887  1
  C  C85  1  0.50000000  0.40687550  0.47048180  1
  C  C86  1  0.50000000  0.40869114  0.80557388  1
  C  C87  1  0.50000000  0.46871289  0.80460877  1
  C  C88  1  0.50000000  0.52928348  0.80379132  1
  C  C89  1  0.50000000  0.58957347  0.80407307  1
  C  C90  1  0.50000000  0.64980441  0.80480664  1
  C  C91  1  0.50000000  0.72504617  0.13901320  1
  C  C92  1  0.50000000  0.71502598  0.47165645  1
  C  C93  1  0.50000000  0.70983193  0.80478357  1
  C  C94  1  0.50000000  0.28388989  0.19404646  1
  C  C95  1  0.50000000  0.28767590  0.52911006  1
  C  C96  1  0.50000000  0.28886704  0.86071370  1
  C  C97  1  0.50000000  0.34379761  0.19425140  1
  C  C98  1  0.50000000  0.34800463  0.52733372  1
  C  C99  1  0.50000000  0.34901189  0.86131364  1
  C  C100  1  0.50000000  0.40347115  0.19596370  1
  C  C101  1  0.50000000  0.40859230  0.52642309  1
  C  C102  1  0.50000000  0.40870198  0.86095690  1
  C  C103  1  0.50000000  0.47027712  0.53441360  1
  C  C104  1  0.50000000  0.46876372  0.85959680  1
  C  C105  1  0.50000000  0.52939442  0.53369967  1
  C  C106  1  0.50000000  0.52946432  0.85820067  1
  C  C107  1  0.50000000  0.58928373  0.53307340  1
  C  C108  1  0.50000000  0.58944164  0.85851912  1
  C  C109  1  0.50000000  0.64868153  0.53294274  1
  C  C110  1  0.50000000  0.64975056  0.85980768  1
  C  C111  1  0.50000000  0.72753983  0.19512680  1
  C  C112  1  0.50000000  0.71047202  0.52804115  1
  C  C113  1  0.50000000  0.70964871  0.86040518  1
  C  C114  1  0.50000000  0.25468176  0.22348339  1
  C  C115  1  0.50000000  0.25877142  0.55854501  1
  C  C116  1  0.50000000  0.25935386  0.88863325  1
  C  C117  1  0.50000000  0.31366404  0.22212671  1
  C  C118  1  0.50000000  0.31807084  0.55587175  1
  C  C119  1  0.50000000  0.31855561  0.88875900  1
  C  C120  1  0.50000000  0.37351680  0.22261169  1
  C  C121  1  0.50000000  0.37876413  0.55449200  1
  C  C122  1  0.50000000  0.37878199  0.88933643  1
  C  C123  1  0.50000000  0.43303454  0.22388429  1
  C  C124  1  0.50000000  0.43928707  0.55609799  1
  C  C125  1  0.50000000  0.43880005  0.88810159  1
  C  C126  1  0.50000000  0.49989975  0.56090982  1
  C  C127  1  0.50000000  0.49935737  0.88480918  1
  C  C128  1  0.50000000  0.55940148  0.55931828  1
  C  C129  1  0.50000000  0.55935905  0.88544413  1
  C  C130  1  0.50000000  0.61908000  0.55961387  1
  C  C131  1  0.50000000  0.61942647  0.88555034  1
  C  C132  1  0.50000000  0.69852079  0.22373935  1
  C  C133  1  0.50000000  0.67963770  0.55588978  1
  C  C134  1  0.50000000  0.67984600  0.88804255  1
  C  C135  1  0.50000000  0.75687075  0.22306988  1
  C  C136  1  0.50000000  0.73880776  0.55812017  1
  C  C137  1  0.50000000  0.73880876  0.88853863  1
  C  C138  1  0.50000000  0.25468099  0.27665367  1
  C  C139  1  0.50000000  0.25932468  0.61136773  1
  C  C140  1  0.50000000  0.25879581  0.94145011  1
  C  C141  1  0.50000000  0.31367269  0.27789751  1
  C  C142  1  0.50000000  0.31856344  0.61120076  1
  C  C143  1  0.50000000  0.31808496  0.94412086  1
  C  C144  1  0.50000000  0.37350832  0.27749064  1
  C  C145  1  0.50000000  0.37878624  0.61065745  1
  C  C146  1  0.50000000  0.37875840  0.94552265  1
  C  C147  1  0.50000000  0.43302119  0.27628853  1
  C  C148  1  0.50000000  0.43881932  0.61185497  1
  C  C149  1  0.50000000  0.43926040  0.94385301  1
  C  C150  1  0.50000000  0.49935265  0.61521506  1
  C  C151  1  0.50000000  0.49990710  0.93913110  1
  C  C152  1  0.50000000  0.55935929  0.61458868  1
  C  C153  1  0.50000000  0.55942825  0.94074743  1
  C  C154  1  0.50000000  0.61940394  0.61442266  1
  C  C155  1  0.50000000  0.61912334  0.94037218  1
  C  C156  1  0.50000000  0.69859746  0.27638945  1
  C  C157  1  0.50000000  0.67982075  0.61183274  1
  C  C158  1  0.50000000  0.67968914  0.94398691  1
  C  C159  1  0.50000000  0.75693771  0.27672228  1
  C  C160  1  0.50000000  0.73879704  0.61124794  1
  C  C161  1  0.50000000  0.73884816  0.94163123  1
  H  H162  1  0.50000000  0.23359711  0.03428972  1
  H  H163  1  0.50000000  0.23200514  0.37359768  1
  H  H164  1  0.50000000  0.23643112  0.70373946  1
  H  H165  1  0.50000000  0.76835463  0.02787833  1
  H  H166  1  0.50000000  0.77655598  0.38166352  1
  H  H167  1  0.50000000  0.76245950  0.70356227  1
  H  H168  1  0.50000000  0.23197767  0.12615141  1
  H  H169  1  0.50000000  0.23356104  0.46590240  1
  H  H170  1  0.50000000  0.23635188  0.79601053  1
  H  H171  1  0.50000000  0.77641742  0.11861873  1
  H  H172  1  0.50000000  0.76834898  0.47220140  1
  H  H173  1  0.50000000  0.76250986  0.79609100  1
  H  H174  1  0.50000000  0.23106148  0.20407700  1
  H  H175  1  0.50000000  0.23517334  0.53928404  1
  H  H176  1  0.50000000  0.23609094  0.86842281  1
  H  H177  1  0.50000000  0.78016760  0.20267463  1
  H  H178  1  0.50000000  0.76254210  0.53937740  1
  H  H179  1  0.50000000  0.76231507  0.86895879  1
  H  H180  1  0.50000000  0.23107519  0.29614117  1
  H  H181  1  0.50000000  0.23610278  0.63174091  1
  H  H182  1  0.50000000  0.23514753  0.96054775  1
  H  H183  1  0.50000000  0.78029794  0.29690108  1
  H  H184  1  0.50000000  0.76233010  0.63072191  1
  H  H185  1  0.50000000  0.76265630  0.96018566  1
  H  H186  1  0.50000000  0.47454862  0.00586940  1
  H  H187  1  0.50000000  0.52897971  0.00844493  1
  H  H188  1  0.50000000  0.58930112  0.00909331  1
  H  H189  1  0.50000000  0.64547876  0.00794626  1
  H  H190  1  0.50000000  0.45919274  0.04957530  1
  H  H191  1  0.50000000  0.45648262  0.36508726  1
  H  H192  1  0.50000000  0.66416963  0.05329750  1
  H  H193  1  0.50000000  0.67211797  0.36040440  1
  H  H194  1  0.50000000  0.45646056  0.13523045  1
  H  H195  1  0.50000000  0.45901063  0.45091814  1
  H  H196  1  0.50000000  0.67198839  0.13958632  1
  H  H197  1  0.50000000  0.66424294  0.44687260  1
  H  H198  1  0.50000000  0.47478411  0.49408546  1
  H  H199  1  0.50000000  0.52900593  0.49165372  1
  H  H200  1  0.50000000  0.58923384  0.49101237  1
  H  H201  1  0.50000000  0.64539599  0.49201174  1
  H  H202  1  0.50000000  0.45645997  0.20424530  1
  H  H203  1  0.50000000  0.67479931  0.20511765  1
  H  H204  1  0.50000000  0.45639276  0.29611464  1
  H  H205  1  0.50000000  0.67497235  0.29531552  1
