# generated using pymatgen
data_H5C18
_symmetry_space_group_name_H-M   'P 1'
_cell_length_a   20.00000000
_cell_length_b   37.22700000
_cell_length_c   25.95254069
_cell_angle_alpha   90.00000000
_cell_angle_beta   90.00000000
_cell_angle_gamma   90.00000000
_symmetry_Int_Tables_number   1
_chemical_formula_structural   H5C18
_chemical_formula_sum   'H40 C144'
_cell_volume   19322.70464213
_cell_formula_units_Z   8
loop_
 _symmetry_equiv_pos_site_id
 _symmetry_equiv_pos_as_xyz
  1  'x, y, z'
loop_
 _atom_site_type_symbol
 _atom_site_label
 _atom_site_symmetry_multiplicity
 _atom_site_fract_x
 _atom_site_fract_y
 _atom_site_fract_z
 _atom_site_occupancy
  C  C0  1  0.50000000  0.31543310  0.22210833  1
  C  C1  1  0.50000000  0.31508310  0.55538715  1
  C  C2  1  0.50000000  0.31506585  0.88874715  1
  C  C3  1  0.50000000  0.38177290  0.22241925  1
  C  C4  1  0.50000000  0.38138744  0.55590107  1
  C  C5  1  0.50000000  0.38138291  0.88896582  1
  C  C6  1  0.50000000  0.44807721  0.22194888  1
  C  C7  1  0.50000000  0.44756555  0.55615846  1
  C  C8  1  0.50000000  0.44753102  0.88849222  1
  C  C9  1  0.50000000  0.51468940  0.55679436  1
  C  C10  1  0.50000000  0.51408325  0.88756956  1
  C  C11  1  0.50000000  0.58060106  0.55937332  1
  C  C12  1  0.50000000  0.58049754  0.88593583  1
  C  C13  1  0.50000000  0.66775681  0.22363006  1
  C  C14  1  0.50000000  0.64736945  0.55581752  1
  C  C15  1  0.50000000  0.64721158  0.88827042  1
  C  C16  1  0.50000000  0.73227680  0.22307094  1
  C  C17  1  0.50000000  0.71271356  0.55855035  1
  C  C18  1  0.50000000  0.71246611  0.88813412  1
  C  C19  1  0.50000000  0.31544079  0.27786900  1
  C  C20  1  0.50000000  0.31508332  0.61122151  1
  C  C21  1  0.50000000  0.31505537  0.94457130  1
  C  C22  1  0.50000000  0.38178506  0.27753858  1
  C  C23  1  0.50000000  0.38142012  0.61099842  1
  C  C24  1  0.50000000  0.38134858  0.94405890  1
  C  C25  1  0.50000000  0.44808966  0.27797308  1
  C  C26  1  0.50000000  0.44758084  0.61148606  1
  C  C27  1  0.50000000  0.44752086  0.94381266  1
  C  C28  1  0.50000000  0.51412451  0.61246129  1
  C  C29  1  0.50000000  0.51463320  0.94323209  1
  C  C30  1  0.50000000  0.58055538  0.61410185  1
  C  C31  1  0.50000000  0.58054539  0.94066819  1
  C  C32  1  0.50000000  0.66778438  0.27649511  1
  C  C33  1  0.50000000  0.64727589  0.61179824  1
  C  C34  1  0.50000000  0.64731643  0.94425601  1
  C  C35  1  0.50000000  0.73230672  0.27693101  1
  C  C36  1  0.50000000  0.71251785  0.61190175  1
  C  C37  1  0.50000000  0.71268297  0.94148040  1
  C  C38  1  0.50000000  0.28303068  0.30674651  1
  C  C39  1  0.50000000  0.28274054  0.64009562  1
  C  C40  1  0.50000000  0.28272772  0.97350842  1
  C  C41  1  0.50000000  0.34850685  0.30549516  1
  C  C42  1  0.50000000  0.34814935  0.63892423  1
  C  C43  1  0.50000000  0.34813114  0.97210651  1
  C  C44  1  0.50000000  0.41502228  0.30563711  1
  C  C45  1  0.50000000  0.41462938  0.63896989  1
  C  C46  1  0.50000000  0.41454360  0.97184528  1
  C  C47  1  0.50000000  0.48039807  0.30705754  1
  C  C48  1  0.50000000  0.48098501  0.63948538  1
  C  C49  1  0.50000000  0.48066918  0.97175204  1
  C  C50  1  0.50000000  0.54718107  0.64054453  1
  C  C51  1  0.50000000  0.54752742  0.96792524  1
  C  C52  1  0.50000000  0.61405636  0.64001084  1
  C  C53  1  0.50000000  0.61298708  0.96738005  1
  C  C54  1  0.50000000  0.69993168  0.30486920  1
  C  C55  1  0.50000000  0.68027494  0.63959019  1
  C  C56  1  0.50000000  0.68148072  0.97164542  1
  C  C57  1  0.50000000  0.28277024  0.02658892  1
  C  C58  1  0.50000000  0.28301183  0.35978616  1
  C  C59  1  0.50000000  0.28275715  0.69319922  1
  C  C60  1  0.50000000  0.34820469  0.02772502  1
  C  C61  1  0.50000000  0.34848297  0.36116295  1
  C  C62  1  0.50000000  0.34812737  0.69449564  1
  C  C63  1  0.50000000  0.41453586  0.02728716  1
  C  C64  1  0.50000000  0.41503142  0.36136796  1
  C  C65  1  0.50000000  0.41453029  0.69462859  1
  C  C66  1  0.50000000  0.47978251  0.02549122  1
  C  C67  1  0.50000000  0.48036425  0.36022165  1
  C  C68  1  0.50000000  0.48085443  0.69462159  1
  C  C69  1  0.50000000  0.54716852  0.69544097  1
  C  C70  1  0.50000000  0.61382884  0.69515229  1
  C  C71  1  0.50000000  0.68667248  0.02824313  1
  C  C72  1  0.50000000  0.69728636  0.36117292  1
  C  C73  1  0.50000000  0.68016043  0.69530137  1
  C  C74  1  0.50000000  0.31516586  0.05542722  1
  C  C75  1  0.50000000  0.31536087  0.38873444  1
  C  C76  1  0.50000000  0.31509601  0.72205857  1
  C  C77  1  0.50000000  0.38148332  0.05556577  1
  C  C78  1  0.50000000  0.38168289  0.38925213  1
  C  C79  1  0.50000000  0.38146273  0.72240990  1
  C  C80  1  0.50000000  0.44780294  0.05455241  1
  C  C81  1  0.50000000  0.44804860  0.38924932  1
  C  C82  1  0.50000000  0.44759285  0.72233686  1
  C  C83  1  0.50000000  0.51392051  0.72242810  1
  C  C84  1  0.50000000  0.58068789  0.72240567  1
  C  C85  1  0.50000000  0.65822537  0.06381717  1
  C  C86  1  0.50000000  0.66316335  0.38368717  1
  C  C87  1  0.50000000  0.64706402  0.72257991  1
  C  C88  1  0.50000000  0.72132428  0.05132269  1
  C  C89  1  0.50000000  0.72651089  0.39550657  1
  C  C90  1  0.50000000  0.71243273  0.72348767  1
  C  C91  1  0.50000000  0.31532373  0.11123025  1
  C  C92  1  0.50000000  0.31520849  0.44453056  1
  C  C93  1  0.50000000  0.31509334  0.77792443  1
  C  C94  1  0.50000000  0.38163007  0.11070375  1
  C  C95  1  0.50000000  0.38153690  0.44438942  1
  C  C96  1  0.50000000  0.38145971  0.77762377  1
  C  C97  1  0.50000000  0.44799993  0.11068549  1
  C  C98  1  0.50000000  0.44786589  0.44540363  1
  C  C99  1  0.50000000  0.44758687  0.77765877  1
  C  C100  1  0.50000000  0.51390728  0.77758127  1
  C  C101  1  0.50000000  0.58067314  0.77763461  1
  C  C102  1  0.50000000  0.66311631  0.11634799  1
  C  C103  1  0.50000000  0.65826858  0.43620606  1
  C  C104  1  0.50000000  0.64705293  0.77749443  1
  C  C105  1  0.50000000  0.72647048  0.10453808  1
  C  C106  1  0.50000000  0.72136003  0.44872287  1
  C  C107  1  0.50000000  0.71241562  0.77663572  1
  C  C108  1  0.50000000  0.28298219  0.14019116  1
  C  C109  1  0.50000000  0.28281561  0.47336009  1
  C  C110  1  0.50000000  0.28274054  0.80677124  1
  C  C111  1  0.50000000  0.34844592  0.13880250  1
  C  C112  1  0.50000000  0.34824598  0.47223788  1
  C  C113  1  0.50000000  0.34811575  0.80550143  1
  C  C114  1  0.50000000  0.41498645  0.13857406  1
  C  C115  1  0.50000000  0.41459542  0.47267952  1
  C  C116  1  0.50000000  0.41452402  0.80536487  1
  C  C117  1  0.50000000  0.48033734  0.13966415  1
  C  C118  1  0.50000000  0.47984774  0.47447843  1
  C  C119  1  0.50000000  0.48083786  0.80538796  1
  C  C120  1  0.50000000  0.54714227  0.80458464  1
  C  C121  1  0.50000000  0.61380604  0.80489448  1
  C  C122  1  0.50000000  0.69723986  0.13886954  1
  C  C123  1  0.50000000  0.68670452  0.47179209  1
  C  C124  1  0.50000000  0.68013427  0.80479509  1
  C  C125  1  0.50000000  0.28302084  0.19323238  1
  C  C126  1  0.50000000  0.28276359  0.52643651  1
  C  C127  1  0.50000000  0.28272170  0.85987297  1
  C  C128  1  0.50000000  0.34848750  0.19446722  1
  C  C129  1  0.50000000  0.34816501  0.52785690  1
  C  C130  1  0.50000000  0.34812258  0.86104383  1
  C  C131  1  0.50000000  0.41500063  0.19429430  1
  C  C132  1  0.50000000  0.41459642  0.52813109  1
  C  C133  1  0.50000000  0.41458400  0.86098914  1
  C  C134  1  0.50000000  0.48038201  0.19283358  1
  C  C135  1  0.50000000  0.48072824  0.52823242  1
  C  C136  1  0.50000000  0.48094941  0.86053279  1
  C  C137  1  0.50000000  0.54758543  0.53212833  1
  C  C138  1  0.50000000  0.54713364  0.85948307  1
  C  C139  1  0.50000000  0.61304925  0.53267612  1
  C  C140  1  0.50000000  0.61400229  0.86003631  1
  C  C141  1  0.50000000  0.69987888  0.19518278  1
  C  C142  1  0.50000000  0.68151215  0.52839244  1
  C  C143  1  0.50000000  0.68021518  0.86049142  1
  H  H144  1  0.50000000  0.75800428  0.20260638  1
  H  H145  1  0.50000000  0.73901025  0.54000208  1
  H  H146  1  0.50000000  0.73831179  0.86820491  1
  H  H147  1  0.50000000  0.75805304  0.29735273  1
  H  H148  1  0.50000000  0.73839749  0.63174779  1
  H  H149  1  0.50000000  0.73899215  0.95998679  1
  H  H150  1  0.50000000  0.25710228  0.28699739  1
  H  H151  1  0.50000000  0.25682366  0.62033496  1
  H  H152  1  0.50000000  0.25679794  0.95376638  1
  H  H153  1  0.50000000  0.25684073  0.04633595  1
  H  H154  1  0.50000000  0.25709568  0.37956210  1
  H  H155  1  0.50000000  0.25682703  0.71293734  1
  H  H156  1  0.50000000  0.74568337  0.02784531  1
  H  H157  1  0.50000000  0.75404313  0.38058928  1
  H  H158  1  0.50000000  0.73829601  0.70360557  1
  H  H159  1  0.50000000  0.75401936  0.11940288  1
  H  H160  1  0.50000000  0.74569226  0.47225876  1
  H  H161  1  0.50000000  0.73825922  0.79655885  1
  H  H162  1  0.50000000  0.25706489  0.12041300  1
  H  H163  1  0.50000000  0.25689672  0.45359964  1
  H  H164  1  0.50000000  0.25682329  0.78697935  1
  H  H165  1  0.50000000  0.25710043  0.21299801  1
  H  H166  1  0.50000000  0.25683076  0.54615713  1
  H  H167  1  0.50000000  0.25679871  0.87963223  1
  H  H168  1  0.50000000  0.64157480  0.20486838  1
  H  H169  1  0.50000000  0.64164037  0.29537337  1
  H  H170  1  0.50000000  0.50638621  0.28739348  1
  H  H171  1  0.50000000  0.54917753  0.01003002  1
  H  H172  1  0.50000000  0.60915012  0.00845621  1
  H  H173  1  0.50000000  0.50522876  0.04622562  1
  H  H174  1  0.50000000  0.50637281  0.37983646  1
  H  H175  1  0.50000000  0.63050169  0.05230333  1
  H  H176  1  0.50000000  0.63871477  0.36057960  1
  H  H177  1  0.50000000  0.63869191  0.13951382  1
  H  H178  1  0.50000000  0.63053053  0.44764523  1
  H  H179  1  0.50000000  0.50633926  0.12000652  1
  H  H180  1  0.50000000  0.50530872  0.45376515  1
  H  H181  1  0.50000000  0.50636252  0.21250165  1
  H  H182  1  0.50000000  0.54925517  0.49002909  1
  H  H183  1  0.50000000  0.60927507  0.49159263  1
