# generated using pymatgen
data_H7C27
_symmetry_space_group_name_H-M   'P 1'
_cell_length_a   10.00000000
_cell_length_b   41.10890000
_cell_length_c   25.87943749
_cell_angle_alpha   90.00000000
_cell_angle_beta   90.00000000
_cell_angle_gamma   90.00000000
_symmetry_Int_Tables_number   1
_chemical_formula_structural   H7C27
_chemical_formula_sum   'H42 C162'
_cell_volume   10638.75207908
_cell_formula_units_Z   6
loop_
 _symmetry_equiv_pos_site_id
 _symmetry_equiv_pos_as_xyz
  1  'x, y, z'
loop_
 _atom_site_type_symbol
 _atom_site_label
 _atom_site_symmetry_multiplicity
 _atom_site_fract_x
 _atom_site_fract_y
 _atom_site_fract_z
 _atom_site_occupancy
  C  C0  1  0.50000000  0.28976889  0.30545801  1
  C  C1  1  0.50000000  0.28953012  0.63889724  1
  C  C2  1  0.50000000  0.28960600  0.97221746  1
  C  C3  1  0.50000000  0.34987836  0.30569532  1
  C  C4  1  0.50000000  0.34961182  0.63914691  1
  C  C5  1  0.50000000  0.34968532  0.97227871  1
  C  C6  1  0.50000000  0.40998178  0.30572966  1
  C  C7  1  0.50000000  0.40972017  0.63901168  1
  C  C8  1  0.50000000  0.40972583  0.97198115  1
  C  C9  1  0.50000000  0.46927576  0.30708914  1
  C  C10  1  0.50000000  0.46991440  0.63928765  1
  C  C11  1  0.50000000  0.46971786  0.97204044  1
  C  C12  1  0.50000000  0.52993739  0.63974112  1
  C  C13  1  0.50000000  0.53029733  0.96891617  1
  C  C14  1  0.50000000  0.59013192  0.64027035  1
  C  C15  1  0.50000000  0.59027632  0.96875104  1
  C  C16  1  0.50000000  0.65028143  0.63995817  1
  C  C17  1  0.50000000  0.65023372  0.96874519  1
  C  C18  1  0.50000000  0.71092827  0.30781226  1
  C  C19  1  0.50000000  0.71029485  0.63974037  1
  C  C20  1  0.50000000  0.71116500  0.97113576  1
  C  C21  1  0.50000000  0.28965772  0.02789138  1
  C  C22  1  0.50000000  0.28972523  0.36111258  1
  C  C23  1  0.50000000  0.28952230  0.69456565  1
  C  C24  1  0.50000000  0.34973937  0.02754778  1
  C  C25  1  0.50000000  0.34982709  0.36105370  1
  C  C26  1  0.50000000  0.34961420  0.69436896  1
  C  C27  1  0.50000000  0.40971653  0.02743154  1
  C  C28  1  0.50000000  0.40996388  0.36142746  1
  C  C29  1  0.50000000  0.40968118  0.69454583  1
  C  C30  1  0.50000000  0.46886930  0.02581498  1
  C  C31  1  0.50000000  0.46920067  0.36028341  1
  C  C32  1  0.50000000  0.46981370  0.69447531  1
  C  C33  1  0.50000000  0.52984474  0.69496637  1
  C  C34  1  0.50000000  0.59007142  0.69530609  1
  C  C35  1  0.50000000  0.65025267  0.69503031  1
  C  C36  1  0.50000000  0.71235895  0.02464777  1
  C  C37  1  0.50000000  0.71127856  0.36086381  1
  C  C38  1  0.50000000  0.71040928  0.69479154  1
  C  C39  1  0.50000000  0.26027555  0.05686532  1
  C  C40  1  0.50000000  0.26030369  0.38999818  1
  C  C41  1  0.50000000  0.26012224  0.72356227  1
  C  C42  1  0.50000000  0.31969071  0.05553695  1
  C  C43  1  0.50000000  0.31971013  0.38891901  1
  C  C44  1  0.50000000  0.31951466  0.72224594  1
  C  C45  1  0.50000000  0.37977698  0.05552470  1
  C  C46  1  0.50000000  0.37980776  0.38917860  1
  C  C47  1  0.50000000  0.37972201  0.72233148  1
  C  C48  1  0.50000000  0.43984193  0.05485346  1
  C  C49  1  0.50000000  0.43987710  0.38928632  1
  C  C50  1  0.50000000  0.43970467  0.72235985  1
  C  C51  1  0.50000000  0.49982698  0.72232698  1
  C  C52  1  0.50000000  0.55992803  0.72246338  1
  C  C53  1  0.50000000  0.62015652  0.72245456  1
  C  C54  1  0.50000000  0.68032565  0.72239567  1
  C  C55  1  0.50000000  0.74053233  0.05549393  1
  C  C56  1  0.50000000  0.73996648  0.39127590  1
  C  C57  1  0.50000000  0.73992448  0.72356088  1
  C  C58  1  0.50000000  0.26033316  0.10996359  1
  C  C59  1  0.50000000  0.26023782  0.44308831  1
  C  C60  1  0.50000000  0.26012735  0.77662599  1
  C  C61  1  0.50000000  0.31975840  0.11108905  1
  C  C62  1  0.50000000  0.31961996  0.44447810  1
  C  C63  1  0.50000000  0.31952393  0.77782635  1
  C  C64  1  0.50000000  0.37985823  0.11086054  1
  C  C65  1  0.50000000  0.37970789  0.44452183  1
  C  C66  1  0.50000000  0.37972999  0.77768173  1
  C  C67  1  0.50000000  0.43995411  0.11078643  1
  C  C68  1  0.50000000  0.43976714  0.44518862  1
  C  C69  1  0.50000000  0.43970336  0.77762592  1
  C  C70  1  0.50000000  0.49982669  0.77759936  1
  C  C71  1  0.50000000  0.55992879  0.77744437  1
  C  C72  1  0.50000000  0.62015086  0.77746570  1
  C  C73  1  0.50000000  0.68030546  0.77753987  1
  C  C74  1  0.50000000  0.73980092  0.10876486  1
  C  C75  1  0.50000000  0.74062183  0.44453590  1
  C  C76  1  0.50000000  0.73990266  0.77648472  1
  C  C77  1  0.50000000  0.28976381  0.13882626  1
  C  C78  1  0.50000000  0.28958499  0.47215502  1
  C  C79  1  0.50000000  0.28954551  0.80555825  1
  C  C80  1  0.50000000  0.34986649  0.13896555  1
  C  C81  1  0.50000000  0.34966245  0.47248989  1
  C  C82  1  0.50000000  0.34963131  0.80568408  1
  C  C83  1  0.50000000  0.41001854  0.13861447  1
  C  C84  1  0.50000000  0.40965047  0.47262181  1
  C  C85  1  0.50000000  0.40968891  0.80546262  1
  C  C86  1  0.50000000  0.46927075  0.13985646  1
  C  C87  1  0.50000000  0.46881795  0.47414902  1
  C  C88  1  0.50000000  0.46981661  0.80547195  1
  C  C89  1  0.50000000  0.52984678  0.80494242  1
  C  C90  1  0.50000000  0.59006740  0.80460310  1
  C  C91  1  0.50000000  0.65023729  0.80490572  1
  C  C92  1  0.50000000  0.71111529  0.13927026  1
  C  C93  1  0.50000000  0.71241842  0.47534831  1
  C  C94  1  0.50000000  0.71035552  0.80517163  1
  C  C95  1  0.50000000  0.28978960  0.19447596  1
  C  C96  1  0.50000000  0.28954981  0.52783790  1
  C  C97  1  0.50000000  0.28955730  0.86121638  1
  C  C98  1  0.50000000  0.34988634  0.19430150  1
  C  C99  1  0.50000000  0.34963200  0.52777247  1
  C  C100  1  0.50000000  0.34963565  0.86091097  1
  C  C101  1  0.50000000  0.41000089  0.19431979  1
  C  C102  1  0.50000000  0.40968969  0.52806042  1
  C  C103  1  0.50000000  0.40974069  0.86099440  1
  C  C104  1  0.50000000  0.46929284  0.19304450  1
  C  C105  1  0.50000000  0.46969317  0.52792127  1
  C  C106  1  0.50000000  0.46992031  0.86065631  1
  C  C107  1  0.50000000  0.53027981  0.53095720  1
  C  C108  1  0.50000000  0.52993486  0.86015515  1
  C  C109  1  0.50000000  0.59028696  0.53109988  1
  C  C110  1  0.50000000  0.59012419  0.85962907  1
  C  C111  1  0.50000000  0.65024944  0.53116735  1
  C  C112  1  0.50000000  0.65027432  0.85997010  1
  C  C113  1  0.50000000  0.71082296  0.19233440  1
  C  C114  1  0.50000000  0.71117871  0.52884815  1
  C  C115  1  0.50000000  0.71025612  0.86023869  1
  C  C116  1  0.50000000  0.26038745  0.22338968  1
  C  C117  1  0.50000000  0.26016692  0.55680596  1
  C  C118  1  0.50000000  0.26016734  0.89019930  1
  C  C119  1  0.50000000  0.31980547  0.22220545  1
  C  C120  1  0.50000000  0.31953882  0.55563276  1
  C  C121  1  0.50000000  0.31956779  0.88886458  1
  C  C122  1  0.50000000  0.37992975  0.22235465  1
  C  C123  1  0.50000000  0.37963811  0.55587227  1
  C  C124  1  0.50000000  0.37971052  0.88889975  1
  C  C125  1  0.50000000  0.43995593  0.22214482  1
  C  C126  1  0.50000000  0.43963568  0.55611326  1
  C  C127  1  0.50000000  0.43968503  0.88865158  1
  C  C128  1  0.50000000  0.50050518  0.55627749  1
  C  C129  1  0.50000000  0.49997794  0.88801200  1
  C  C130  1  0.50000000  0.56037368  0.55751273  1
  C  C131  1  0.50000000  0.56013796  0.88700583  1
  C  C132  1  0.50000000  0.62006371  0.55763184  1
  C  C133  1  0.50000000  0.62013070  0.88689494  1
  C  C134  1  0.50000000  0.68004435  0.55648495  1
  C  C135  1  0.50000000  0.68039279  0.88760574  1
  C  C136  1  0.50000000  0.73922528  0.22348484  1
  C  C137  1  0.50000000  0.74052637  0.55863573  1
  C  C138  1  0.50000000  0.74018383  0.88875629  1
  C  C139  1  0.50000000  0.26037920  0.27648289  1
  C  C140  1  0.50000000  0.26015675  0.60990187  1
  C  C141  1  0.50000000  0.26019565  0.94330157  1
  C  C142  1  0.50000000  0.31980224  0.27778025  1
  C  C143  1  0.50000000  0.31953521  0.61120078  1
  C  C144  1  0.50000000  0.31958729  0.94441264  1
  C  C145  1  0.50000000  0.37992596  0.27767255  1
  C  C146  1  0.50000000  0.37968162  0.61112934  1
  C  C147  1  0.50000000  0.37967871  0.94415718  1
  C  C148  1  0.50000000  0.43995420  0.27793951  1
  C  C149  1  0.50000000  0.43966212  0.61133048  1
  C  C150  1  0.50000000  0.43965877  0.94388187  1
  C  C151  1  0.50000000  0.49997145  0.61190367  1
  C  C152  1  0.50000000  0.50051804  0.94364056  1
  C  C153  1  0.50000000  0.56014457  0.61287606  1
  C  C154  1  0.50000000  0.56037223  0.94234766  1
  C  C155  1  0.50000000  0.62014125  0.61301372  1
  C  C156  1  0.50000000  0.62005418  0.94226256  1
  C  C157  1  0.50000000  0.68040787  0.61234876  1
  C  C158  1  0.50000000  0.68003743  0.94346910  1
  C  C159  1  0.50000000  0.73926674  0.27646494  1
  C  C160  1  0.50000000  0.74020919  0.61120218  1
  C  C161  1  0.50000000  0.74051666  0.94130177  1
  H  H162  1  0.50000000  0.23684180  0.03688901  1
  H  H163  1  0.50000000  0.23685774  0.37005847  1
  H  H164  1  0.50000000  0.23667383  0.70368787  1
  H  H165  1  0.50000000  0.76447251  0.03701229  1
  H  H166  1  0.50000000  0.76344252  0.37126113  1
  H  H167  1  0.50000000  0.76337588  0.70370565  1
  H  H168  1  0.50000000  0.23692449  0.12999757  1
  H  H169  1  0.50000000  0.23674141  0.46285366  1
  H  H170  1  0.50000000  0.23669969  0.79659126  1
  H  H171  1  0.50000000  0.76330306  0.12869069  1
  H  H172  1  0.50000000  0.76457023  0.46296294  1
  H  H173  1  0.50000000  0.76331153  0.79648256  1
  H  H174  1  0.50000000  0.23694135  0.20344206  1
  H  H175  1  0.50000000  0.23669501  0.53699441  1
  H  H176  1  0.50000000  0.23673061  0.87023533  1
  H  H177  1  0.50000000  0.76294123  0.20416988  1
  H  H178  1  0.50000000  0.76390309  0.53853256  1
  H  H179  1  0.50000000  0.76341888  0.86826847  1
  H  H180  1  0.50000000  0.23690370  0.29632432  1
  H  H181  1  0.50000000  0.23670665  0.62979653  1
  H  H182  1  0.50000000  0.23678667  0.96332628  1
  H  H183  1  0.50000000  0.76305647  0.29552250  1
  H  H184  1  0.50000000  0.76347315  0.63159751  1
  H  H185  1  0.50000000  0.76395241  0.96123930  1
  H  H186  1  0.50000000  0.49275421  0.28729500  1
  H  H187  1  0.50000000  0.53143311  0.01112266  1
  H  H188  1  0.50000000  0.59039732  0.01108609  1
  H  H189  1  0.50000000  0.64902559  0.01097856  1
  H  H190  1  0.50000000  0.68710187  0.28884179  1
  H  H191  1  0.50000000  0.49191551  0.04658320  1
  H  H192  1  0.50000000  0.49263481  0.38023114  1
  H  H193  1  0.50000000  0.68924148  0.04536375  1
  H  H194  1  0.50000000  0.68759261  0.38032453  1
  H  H195  1  0.50000000  0.49274101  0.12002883  1
  H  H196  1  0.50000000  0.49180252  0.45317973  1
  H  H197  1  0.50000000  0.68738845  0.11994788  1
  H  H198  1  0.50000000  0.68928067  0.45469277  1
  H  H199  1  0.50000000  0.49271708  0.21301477  1
  H  H200  1  0.50000000  0.53139518  0.48871624  1
  H  H201  1  0.50000000  0.59040781  0.48872666  1
  H  H202  1  0.50000000  0.64907523  0.48891325  1
  H  H203  1  0.50000000  0.68708203  0.21160412  1
