# generated using pymatgen
data_H5C27
_symmetry_space_group_name_H-M   'P 1'
_cell_length_a   10.00000000
_cell_length_b   41.10890000
_cell_length_c   25.89343310
_cell_angle_alpha   90.00000000
_cell_angle_beta   90.00000000
_cell_angle_gamma   90.00000000
_symmetry_Int_Tables_number   1
_chemical_formula_structural   H5C27
_chemical_formula_sum   'H30 C162'
_cell_volume   10644.50551947
_cell_formula_units_Z   6
loop_
 _symmetry_equiv_pos_site_id
 _symmetry_equiv_pos_as_xyz
  1  'x, y, z'
loop_
 _atom_site_type_symbol
 _atom_site_label
 _atom_site_symmetry_multiplicity
 _atom_site_fract_x
 _atom_site_fract_y
 _atom_site_fract_z
 _atom_site_occupancy
  C  C0  1  0.50000000  0.28744623  0.63865867  1
  C  C1  1  0.50000000  0.28878142  0.97092849  1
  C  C2  1  0.50000000  0.34782657  0.64096190  1
  C  C3  1  0.50000000  0.34876537  0.96802053  1
  C  C4  1  0.50000000  0.40868792  0.64033342  1
  C  C5  1  0.50000000  0.40758207  0.96582651  1
  C  C6  1  0.50000000  0.47293169  0.30414787  1
  C  C7  1  0.50000000  0.46890801  0.63903740  1
  C  C8  1  0.50000000  0.46898901  0.97335509  1
  C  C9  1  0.50000000  0.53254160  0.30576621  1
  C  C10  1  0.50000000  0.52891773  0.63853392  1
  C  C11  1  0.50000000  0.52958347  0.97256861  1
  C  C12  1  0.50000000  0.59218475  0.30567240  1
  C  C13  1  0.50000000  0.58924063  0.63894894  1
  C  C14  1  0.50000000  0.58991233  0.97185701  1
  C  C15  1  0.50000000  0.65215237  0.30580177  1
  C  C16  1  0.50000000  0.64940910  0.63953594  1
  C  C17  1  0.50000000  0.65003602  0.97160751  1
  C  C18  1  0.50000000  0.71125739  0.30743476  1
  C  C19  1  0.50000000  0.70973107  0.63924882  1
  C  C20  1  0.50000000  0.70987160  0.97094149  1
  C  C21  1  0.50000000  0.28745638  0.69481626  1
  C  C22  1  0.50000000  0.34795420  0.69583278  1
  C  C23  1  0.50000000  0.40869950  0.69533723  1
  C  C24  1  0.50000000  0.47034061  0.02919483  1
  C  C25  1  0.50000000  0.47301370  0.35894603  1
  C  C26  1  0.50000000  0.46894165  0.69450711  1
  C  C27  1  0.50000000  0.53061340  0.02779913  1
  C  C28  1  0.50000000  0.53219698  0.36090372  1
  C  C29  1  0.50000000  0.52898588  0.69427674  1
  C  C30  1  0.50000000  0.59068556  0.02745486  1
  C  C31  1  0.50000000  0.59189045  0.36143239  1
  C  C32  1  0.50000000  0.58915701  0.69450310  1
  C  C33  1  0.50000000  0.65073662  0.02688425  1
  C  C34  1  0.50000000  0.65188891  0.36150046  1
  C  C35  1  0.50000000  0.64927300  0.69459674  1
  C  C36  1  0.50000000  0.70991930  0.02520019  1
  C  C37  1  0.50000000  0.71098736  0.36086219  1
  C  C38  1  0.50000000  0.70953151  0.69471608  1
  C  C39  1  0.50000000  0.25833521  0.72328134  1
  C  C40  1  0.50000000  0.31749363  0.72250644  1
  C  C41  1  0.50000000  0.37825598  0.72243901  1
  C  C42  1  0.50000000  0.44261404  0.06207887  1
  C  C43  1  0.50000000  0.44350854  0.38557493  1
  C  C44  1  0.50000000  0.43889332  0.72234294  1
  C  C45  1  0.50000000  0.50093524  0.05605075  1
  C  C46  1  0.50000000  0.50203761  0.38827883  1
  C  C47  1  0.50000000  0.49904950  0.72219843  1
  C  C48  1  0.50000000  0.56100149  0.05545644  1
  C  C49  1  0.50000000  0.56183787  0.38915979  1
  C  C50  1  0.50000000  0.55899687  0.72223639  1
  C  C51  1  0.50000000  0.62091110  0.05514430  1
  C  C52  1  0.50000000  0.62156609  0.38943649  1
  C  C53  1  0.50000000  0.61908356  0.72224630  1
  C  C54  1  0.50000000  0.68121290  0.05409067  1
  C  C55  1  0.50000000  0.68164191  0.38945689  1
  C  C56  1  0.50000000  0.67946741  0.72225674  1
  C  C57  1  0.50000000  0.73894635  0.72347330  1
  C  C58  1  0.50000000  0.25833444  0.77674220  1
  C  C59  1  0.50000000  0.31749792  0.77751076  1
  C  C60  1  0.50000000  0.37827773  0.77755385  1
  C  C61  1  0.50000000  0.44353171  0.11441996  1
  C  C62  1  0.50000000  0.44260198  0.43791532  1
  C  C63  1  0.50000000  0.43887382  0.77764834  1
  C  C64  1  0.50000000  0.50205151  0.11172226  1
  C  C65  1  0.50000000  0.50092016  0.44394692  1
  C  C66  1  0.50000000  0.49905048  0.77779713  1
  C  C67  1  0.50000000  0.56184243  0.11085751  1
  C  C68  1  0.50000000  0.56099163  0.44455741  1
  C  C69  1  0.50000000  0.55899920  0.77774337  1
  C  C70  1  0.50000000  0.62156026  0.11055281  1
  C  C71  1  0.50000000  0.62091438  0.44484248  1
  C  C72  1  0.50000000  0.61908521  0.77773142  1
  C  C73  1  0.50000000  0.68164198  0.11051603  1
  C  C74  1  0.50000000  0.68121694  0.44587643  1
  C  C75  1  0.50000000  0.67947553  0.77773046  1
  C  C76  1  0.50000000  0.73896170  0.77647472  1
  C  C77  1  0.50000000  0.28746051  0.80520547  1
  C  C78  1  0.50000000  0.34797037  0.80416743  1
  C  C79  1  0.50000000  0.40870189  0.80466021  1
  C  C80  1  0.50000000  0.47302918  0.14105108  1
  C  C81  1  0.50000000  0.47032465  0.47080126  1
  C  C82  1  0.50000000  0.46893431  0.80547374  1
  C  C83  1  0.50000000  0.53220615  0.13911244  1
  C  C84  1  0.50000000  0.53060459  0.47219578  1
  C  C85  1  0.50000000  0.52898650  0.80570405  1
  C  C86  1  0.50000000  0.59189292  0.13858055  1
  C  C87  1  0.50000000  0.59068577  0.47254096  1
  C  C88  1  0.50000000  0.58915684  0.80547291  1
  C  C89  1  0.50000000  0.65189042  0.13843967  1
  C  C90  1  0.50000000  0.65074081  0.47309341  1
  C  C91  1  0.50000000  0.64927678  0.80538942  1
  C  C92  1  0.50000000  0.71096617  0.13915840  1
  C  C93  1  0.50000000  0.70992319  0.47477592  1
  C  C94  1  0.50000000  0.70955177  0.80526730  1
  C  C95  1  0.50000000  0.28874796  0.52910964  1
  C  C96  1  0.50000000  0.28745801  0.86136504  1
  C  C97  1  0.50000000  0.34873212  0.53197427  1
  C  C98  1  0.50000000  0.34784028  0.85903864  1
  C  C99  1  0.50000000  0.40757099  0.53418294  1
  C  C100  1  0.50000000  0.40869769  0.85966244  1
  C  C101  1  0.50000000  0.47293137  0.19584978  1
  C  C102  1  0.50000000  0.46897903  0.52664139  1
  C  C103  1  0.50000000  0.46890959  0.86095268  1
  C  C104  1  0.50000000  0.53254258  0.19424999  1
  C  C105  1  0.50000000  0.52957043  0.52743004  1
  C  C106  1  0.50000000  0.52892191  0.86145424  1
  C  C107  1  0.50000000  0.59218872  0.19435537  1
  C  C108  1  0.50000000  0.58990825  0.52813413  1
  C  C109  1  0.50000000  0.58924084  0.86103010  1
  C  C110  1  0.50000000  0.65215304  0.19420925  1
  C  C111  1  0.50000000  0.65003267  0.52836973  1
  C  C112  1  0.50000000  0.64941057  0.86044430  1
  C  C113  1  0.50000000  0.71125285  0.19258294  1
  C  C114  1  0.50000000  0.70987281  0.52903618  1
  C  C115  1  0.50000000  0.70974207  0.86073718  1
  C  C116  1  0.50000000  0.25931742  0.55519227  1
  C  C117  1  0.50000000  0.25869448  0.89065829  1
  C  C118  1  0.50000000  0.31845857  0.55701151  1
  C  C119  1  0.50000000  0.31799336  0.88747580  1
  C  C120  1  0.50000000  0.37775803  0.56020362  1
  C  C121  1  0.50000000  0.37800498  0.88518244  1
  C  C122  1  0.50000000  0.44324749  0.22366025  1
  C  C123  1  0.50000000  0.43837558  0.55611134  1
  C  C124  1  0.50000000  0.43882862  0.88792711  1
  C  C125  1  0.50000000  0.50285462  0.22252017  1
  C  C126  1  0.50000000  0.49892543  0.55470096  1
  C  C127  1  0.50000000  0.49904618  0.88922748  1
  C  C128  1  0.50000000  0.56245563  0.22225426  1
  C  C129  1  0.50000000  0.55954740  0.55564032  1
  C  C130  1  0.50000000  0.55930677  0.88899642  1
  C  C131  1  0.50000000  0.62211907  0.22233766  1
  C  C132  1  0.50000000  0.61971314  0.55603698  1
  C  C133  1  0.50000000  0.61944403  0.88859172  1
  C  C134  1  0.50000000  0.68216544  0.22187570  1
  C  C135  1  0.50000000  0.67971531  0.55662692  1
  C  C136  1  0.50000000  0.67966326  0.88802811  1
  C  C137  1  0.50000000  0.73953608  0.55753026  1
  C  C138  1  0.50000000  0.73938873  0.88950766  1
  C  C139  1  0.50000000  0.25867534  0.60939212  1
  C  C140  1  0.50000000  0.25934430  0.94486263  1
  C  C141  1  0.50000000  0.31797414  0.61253176  1
  C  C142  1  0.50000000  0.31848444  0.94299810  1
  C  C143  1  0.50000000  0.37798678  0.61481373  1
  C  C144  1  0.50000000  0.37780494  0.93978840  1
  C  C145  1  0.50000000  0.44325627  0.27634480  1
  C  C146  1  0.50000000  0.43882535  0.61206980  1
  C  C147  1  0.50000000  0.43836660  0.94388270  1
  C  C148  1  0.50000000  0.50285483  0.27748993  1
  C  C149  1  0.50000000  0.49904451  0.61076044  1
  C  C150  1  0.50000000  0.49893225  0.94529025  1
  C  C151  1  0.50000000  0.56245272  0.27776350  1
  C  C152  1  0.50000000  0.55930208  0.61098975  1
  C  C153  1  0.50000000  0.55955261  0.94434099  1
  C  C154  1  0.50000000  0.62212612  0.27771693  1
  C  C155  1  0.50000000  0.61944236  0.61139552  1
  C  C156  1  0.50000000  0.61971100  0.94394001  1
  C  C157  1  0.50000000  0.68215991  0.27817727  1
  C  C158  1  0.50000000  0.67965947  0.61195336  1
  C  C159  1  0.50000000  0.67971846  0.94334504  1
  C  C160  1  0.50000000  0.73937997  0.61048738  1
  C  C161  1  0.50000000  0.73953932  0.94246042  1
  H  H162  1  0.50000000  0.23492054  0.70324618  1
  H  H163  1  0.50000000  0.76237003  0.70352586  1
  H  H164  1  0.50000000  0.23490956  0.79675610  1
  H  H165  1  0.50000000  0.76240644  0.79638278  1
  H  H166  1  0.50000000  0.23629491  0.53383981  1
  H  H167  1  0.50000000  0.23507593  0.87127100  1
  H  H168  1  0.50000000  0.76259953  0.53620613  1
  H  H169  1  0.50000000  0.76268430  0.86914906  1
  H  H170  1  0.50000000  0.23506294  0.62879905  1
  H  H171  1  0.50000000  0.23632802  0.96624154  1
  H  H172  1  0.50000000  0.76266666  0.63086575  1
  H  H173  1  0.50000000  0.76260303  0.96377821  1
  H  H174  1  0.50000000  0.28973877  0.01323546  1
  H  H175  1  0.50000000  0.34966573  0.01036715  1
  H  H176  1  0.50000000  0.40306813  0.00622467  1
  H  H177  1  0.50000000  0.73485226  0.28793081  1
  H  H178  1  0.50000000  0.73359744  0.04450095  1
  H  H179  1  0.50000000  0.73439366  0.38096262  1
  H  H180  1  0.50000000  0.41806350  0.04910432  1
  H  H181  1  0.50000000  0.42028839  0.36528690  1
  H  H182  1  0.50000000  0.42032337  0.13473594  1
  H  H183  1  0.50000000  0.41805581  0.45091882  1
  H  H184  1  0.50000000  0.73437806  0.11908930  1
  H  H185  1  0.50000000  0.73360589  0.45547621  1
  H  H186  1  0.50000000  0.28969731  0.48680485  1
  H  H187  1  0.50000000  0.34962816  0.48963144  1
  H  H188  1  0.50000000  0.40306682  0.49377267  1
  H  H189  1  0.50000000  0.73486636  0.21204329  1
  H  H190  1  0.50000000  0.41992869  0.20360955  1
  H  H191  1  0.50000000  0.41995930  0.29644241  1
