# generated using pymatgen
data_H5C18
_symmetry_space_group_name_H-M   'P 1'
_cell_length_a   20.00000000
_cell_length_b   37.22700000
_cell_length_c   25.98882316
_cell_angle_alpha   90.00000000
_cell_angle_beta   90.00000000
_cell_angle_gamma   90.00000000
_symmetry_Int_Tables_number   1
_chemical_formula_structural   H5C18
_chemical_formula_sum   'H40 C144'
_cell_volume   19349.71839222
_cell_formula_units_Z   8
loop_
 _symmetry_equiv_pos_site_id
 _symmetry_equiv_pos_as_xyz
  1  'x, y, z'
loop_
 _atom_site_type_symbol
 _atom_site_label
 _atom_site_symmetry_multiplicity
 _atom_site_fract_x
 _atom_site_fract_y
 _atom_site_fract_z
 _atom_site_occupancy
  C  C0  1  0.50000000  0.31471246  0.22203738  1
  C  C1  1  0.50000000  0.31781335  0.55629419  1
  C  C2  1  0.50000000  0.31821666  0.88818705  1
  C  C3  1  0.50000000  0.38086195  0.22242012  1
  C  C4  1  0.50000000  0.38432013  0.55574724  1
  C  C5  1  0.50000000  0.38461345  0.88919919  1
  C  C6  1  0.50000000  0.44671344  0.22253214  1
  C  C7  1  0.50000000  0.45123331  0.55471626  1
  C  C8  1  0.50000000  0.45108850  0.88930103  1
  C  C9  1  0.50000000  0.51252178  0.22375539  1
  C  C10  1  0.50000000  0.51811546  0.55660572  1
  C  C11  1  0.50000000  0.51754482  0.88778257  1
  C  C12  1  0.50000000  0.58490716  0.56150493  1
  C  C13  1  0.50000000  0.58444641  0.88441785  1
  C  C14  1  0.50000000  0.65068061  0.55826925  1
  C  C15  1  0.50000000  0.65095611  0.88628563  1
  C  C16  1  0.50000000  0.71388655  0.22364781  1
  C  C17  1  0.50000000  0.71731009  0.55933031  1
  C  C18  1  0.50000000  0.71703804  0.88830680  1
  C  C19  1  0.50000000  0.31470565  0.27794415  1
  C  C20  1  0.50000000  0.31819544  0.61180276  1
  C  C21  1  0.50000000  0.31784386  0.94369303  1
  C  C22  1  0.50000000  0.38086066  0.27758472  1
  C  C23  1  0.50000000  0.38459415  0.61078737  1
  C  C24  1  0.50000000  0.38433952  0.94424003  1
  C  C25  1  0.50000000  0.44671360  0.27745361  1
  C  C26  1  0.50000000  0.45106882  0.61068175  1
  C  C27  1  0.50000000  0.45124642  0.94526523  1
  C  C28  1  0.50000000  0.51251604  0.27624296  1
  C  C29  1  0.50000000  0.51751176  0.61220895  1
  C  C30  1  0.50000000  0.51811926  0.94339041  1
  C  C31  1  0.50000000  0.58448373  0.61556812  1
  C  C32  1  0.50000000  0.58489205  0.93848113  1
  C  C33  1  0.50000000  0.65098189  0.61371680  1
  C  C34  1  0.50000000  0.65065794  0.94173077  1
  C  C35  1  0.50000000  0.71388051  0.27645026  1
  C  C36  1  0.50000000  0.71705335  0.61171829  1
  C  C37  1  0.50000000  0.71729749  0.94068531  1
  C  C38  1  0.50000000  0.28255994  0.30761037  1
  C  C39  1  0.50000000  0.28587335  0.64083362  1
  C  C40  1  0.50000000  0.28509946  0.97192500  1
  C  C41  1  0.50000000  0.34783415  0.30573871  1
  C  C42  1  0.50000000  0.35146872  0.63903257  1
  C  C43  1  0.50000000  0.35069270  0.97175849  1
  C  C44  1  0.50000000  0.41390971  0.30570638  1
  C  C45  1  0.50000000  0.41802957  0.63854745  1
  C  C46  1  0.50000000  0.41741864  0.97259523  1
  C  C47  1  0.50000000  0.47978730  0.30427925  1
  C  C48  1  0.50000000  0.48416418  0.63923571  1
  C  C49  1  0.50000000  0.48445327  0.97333799  1
  C  C50  1  0.50000000  0.55056138  0.64075004  1
  C  C51  1  0.50000000  0.55240815  0.96502837  1
  C  C52  1  0.50000000  0.61786557  0.64169711  1
  C  C53  1  0.50000000  0.61758002  0.96609495  1
  C  C54  1  0.50000000  0.68287460  0.30847347  1
  C  C55  1  0.50000000  0.68414984  0.64054219  1
  C  C56  1  0.50000000  0.68473572  0.97011393  1
  C  C57  1  0.50000000  0.28426098  0.02485716  1
  C  C58  1  0.50000000  0.28290643  0.36071705  1
  C  C59  1  0.50000000  0.28607253  0.69366444  1
  C  C60  1  0.50000000  0.34973309  0.02729671  1
  C  C61  1  0.50000000  0.34826783  0.36144454  1
  C  C62  1  0.50000000  0.35163833  0.69455196  1
  C  C63  1  0.50000000  0.41622458  0.02785501  1
  C  C64  1  0.50000000  0.41436725  0.36086320  1
  C  C65  1  0.50000000  0.41801552  0.69424873  1
  C  C66  1  0.50000000  0.48287844  0.02910603  1
  C  C67  1  0.50000000  0.47979454  0.35889347  1
  C  C68  1  0.50000000  0.48406287  0.69441232  1
  C  C69  1  0.50000000  0.55045271  0.69555931  1
  C  C70  1  0.50000000  0.61759023  0.69610133  1
  C  C71  1  0.50000000  0.68546161  0.02348623  1
  C  C72  1  0.50000000  0.68375345  0.36138531  1
  C  C73  1  0.50000000  0.68421235  0.69512063  1
  C  C74  1  0.50000000  0.31628386  0.05458851  1
  C  C75  1  0.50000000  0.31546311  0.38961137  1
  C  C76  1  0.50000000  0.31863182  0.72221222  1
  C  C77  1  0.50000000  0.38264553  0.05559628  1
  C  C78  1  0.50000000  0.38162689  0.38926187  1
  C  C79  1  0.50000000  0.38494095  0.72241785  1
  C  C80  1  0.50000000  0.44902241  0.05612022  1
  C  C81  1  0.50000000  0.44769651  0.38824345  1
  C  C82  1  0.50000000  0.45095714  0.72227836  1
  C  C83  1  0.50000000  0.51350062  0.06211124  1
  C  C84  1  0.50000000  0.51242998  0.38566277  1
  C  C85  1  0.50000000  0.51717541  0.72250135  1
  C  C86  1  0.50000000  0.58391545  0.72270921  1
  C  C87  1  0.50000000  0.65097284  0.72272488  1
  C  C88  1  0.50000000  0.71631924  0.05504375  1
  C  C89  1  0.50000000  0.71549906  0.39187817  1
  C  C90  1  0.50000000  0.71687840  0.72371910  1
  C  C91  1  0.50000000  0.31548449  0.11037156  1
  C  C92  1  0.50000000  0.31625321  0.44539556  1
  C  C93  1  0.50000000  0.31863146  0.77777589  1
  C  C94  1  0.50000000  0.38164664  0.11072863  1
  C  C95  1  0.50000000  0.38261388  0.44439774  1
  C  C96  1  0.50000000  0.38493724  0.77756815  1
  C  C97  1  0.50000000  0.44771341  0.11175353  1
  C  C98  1  0.50000000  0.44900038  0.44386468  1
  C  C99  1  0.50000000  0.45096193  0.77771907  1
  C  C100  1  0.50000000  0.51245400  0.11433041  1
  C  C101  1  0.50000000  0.51347068  0.43787943  1
  C  C102  1  0.50000000  0.51718258  0.77746629  1
  C  C103  1  0.50000000  0.58391996  0.77727701  1
  C  C104  1  0.50000000  0.65097232  0.77727059  1
  C  C105  1  0.50000000  0.71544451  0.10815623  1
  C  C106  1  0.50000000  0.71636977  0.44499513  1
  C  C107  1  0.50000000  0.71687847  0.77629667  1
  C  C108  1  0.50000000  0.28292697  0.13926433  1
  C  C109  1  0.50000000  0.28422996  0.47513108  1
  C  C110  1  0.50000000  0.28608432  0.80632717  1
  C  C111  1  0.50000000  0.34828546  0.13854644  1
  C  C112  1  0.50000000  0.34970171  0.47269635  1
  C  C113  1  0.50000000  0.35163927  0.80542699  1
  C  C114  1  0.50000000  0.41438422  0.13913372  1
  C  C115  1  0.50000000  0.41619840  0.47212696  1
  C  C116  1  0.50000000  0.41801769  0.80573898  1
  C  C117  1  0.50000000  0.47981787  0.14110647  1
  C  C118  1  0.50000000  0.48285120  0.47088408  1
  C  C119  1  0.50000000  0.48406732  0.80556168  1
  C  C120  1  0.50000000  0.55045708  0.80441136  1
  C  C121  1  0.50000000  0.61758891  0.80389541  1
  C  C122  1  0.50000000  0.68372940  0.13868797  1
  C  C123  1  0.50000000  0.68549467  0.47651821  1
  C  C124  1  0.50000000  0.68420319  0.80487706  1
  C  C125  1  0.50000000  0.28257005  0.19236823  1
  C  C126  1  0.50000000  0.28506482  0.52806645  1
  C  C127  1  0.50000000  0.28588519  0.85916128  1
  C  C128  1  0.50000000  0.34784286  0.19424984  1
  C  C129  1  0.50000000  0.35066732  0.52823440  1
  C  C130  1  0.50000000  0.35148580  0.86095954  1
  C  C131  1  0.50000000  0.41391241  0.19429199  1
  C  C132  1  0.50000000  0.41739634  0.52738745  1
  C  C133  1  0.50000000  0.41804550  0.86144165  1
  C  C134  1  0.50000000  0.47979739  0.19572162  1
  C  C135  1  0.50000000  0.48444344  0.52665276  1
  C  C136  1  0.50000000  0.48418751  0.86074821  1
  C  C137  1  0.50000000  0.55241275  0.53496466  1
  C  C138  1  0.50000000  0.55055792  0.85921506  1
  C  C139  1  0.50000000  0.61759956  0.53389934  1
  C  C140  1  0.50000000  0.61784122  0.85830168  1
  C  C141  1  0.50000000  0.68287526  0.19161534  1
  C  C142  1  0.50000000  0.68475488  0.52989111  1
  C  C143  1  0.50000000  0.68412854  0.85946570  1
  H  H144  1  0.50000000  0.74019196  0.20472761  1
  H  H145  1  0.50000000  0.74313559  0.53929017  1
  H  H146  1  0.50000000  0.74279264  0.86814339  1
  H  H147  1  0.50000000  0.74017408  0.29538718  1
  H  H148  1  0.50000000  0.74279481  0.63190526  1
  H  H149  1  0.50000000  0.74314425  0.96067771  1
  H  H150  1  0.50000000  0.25651229  0.28816376  1
  H  H151  1  0.50000000  0.25994271  0.62117284  1
  H  H152  1  0.50000000  0.25955198  0.95125521  1
  H  H153  1  0.50000000  0.25809370  0.04402288  1
  H  H154  1  0.50000000  0.25702972  0.38065199  1
  H  H155  1  0.50000000  0.26026443  0.71362966  1
  H  H156  1  0.50000000  0.74288284  0.03684435  1
  H  H157  1  0.50000000  0.74145026  0.37199526  1
  H  H158  1  0.50000000  0.74264532  0.70361770  1
  H  H159  1  0.50000000  0.74141068  0.12799416  1
  H  H160  1  0.50000000  0.74290814  0.46320110  1
  H  H161  1  0.50000000  0.74264148  0.79641576  1
  H  H162  1  0.50000000  0.25705018  0.11934517  1
  H  H163  1  0.50000000  0.25806928  0.45594619  1
  H  H164  1  0.50000000  0.26027544  0.78636351  1
  H  H165  1  0.50000000  0.25651425  0.21179829  1
  H  H166  1  0.50000000  0.25950474  0.54870978  1
  H  H167  1  0.50000000  0.25994703  0.87881427  1
  H  H168  1  0.50000000  0.53832767  0.20387024  1
  H  H169  1  0.50000000  0.53831665  0.29613255  1
  H  H170  1  0.50000000  0.55729085  0.00540402  1
  H  H171  1  0.50000000  0.61573448  0.00813408  1
  H  H172  1  0.50000000  0.65639063  0.28997110  1
  H  H173  1  0.50000000  0.65962898  0.04344568  1
  H  H174  1  0.50000000  0.65777061  0.38123114  1
  H  H175  1  0.50000000  0.54056398  0.04869850  1
  H  H176  1  0.50000000  0.53804727  0.36529089  1
  H  H177  1  0.50000000  0.53807589  0.13468867  1
  H  H178  1  0.50000000  0.54052200  0.45131597  1
  H  H179  1  0.50000000  0.65772917  0.11886820  1
  H  H180  1  0.50000000  0.65967394  0.45652879  1
  H  H181  1  0.50000000  0.55730763  0.49458500  1
  H  H182  1  0.50000000  0.61575202  0.49186117  1
  H  H183  1  0.50000000  0.65639525  0.21014913  1
