# generated using pymatgen
data_H14C75
_symmetry_space_group_name_H-M   'P 1'
_cell_length_a   20.00000000
_cell_length_b   40.19450000
_cell_length_c   25.88015704
_cell_angle_alpha   90.00000000
_cell_angle_beta   90.00000000
_cell_angle_gamma   90.00000000
_symmetry_Int_Tables_number   1
_chemical_formula_structural   H14C75
_chemical_formula_sum   'H28 C150'
_cell_volume   20804.79944625
_cell_formula_units_Z   2
loop_
 _symmetry_equiv_pos_site_id
 _symmetry_equiv_pos_as_xyz
  1  'x, y, z'
loop_
 _atom_site_type_symbol
 _atom_site_label
 _atom_site_symmetry_multiplicity
 _atom_site_fract_x
 _atom_site_fract_y
 _atom_site_fract_z
 _atom_site_occupancy
  C  C0  1  0.50000000  0.28382738  0.61630060  1
  C  C1  1  0.50000000  0.28567651  0.77653553  1
  C  C2  1  0.50000000  0.28233333  0.93690746  1
  C  C3  1  0.50000000  0.31497369  0.64051257  1
  C  C4  1  0.50000000  0.31571815  0.80430029  1
  C  C5  1  0.50000000  0.31155216  0.96520613  1
  C  C6  1  0.50000000  0.28229053  0.56336988  1
  C  C7  1  0.50000000  0.28566147  0.72380917  1
  C  C8  1  0.50000000  0.28380946  0.88398151  1
  C  C9  1  0.50000000  0.34917045  0.11387329  1
  C  C10  1  0.50000000  0.34531358  0.61161741  1
  C  C11  1  0.50000000  0.34891706  0.27637750  1
  C  C12  1  0.50000000  0.34634893  0.77763994  1
  C  C13  1  0.50000000  0.34849128  0.43856885  1
  C  C14  1  0.50000000  0.34409842  0.94406288  1
  C  C15  1  0.50000000  0.37931919  0.14080371  1
  C  C16  1  0.50000000  0.37651101  0.63885397  1
  C  C17  1  0.50000000  0.37922624  0.30428469  1
  C  C18  1  0.50000000  0.37697011  0.80587187  1
  C  C19  1  0.50000000  0.37702927  0.47089247  1
  C  C20  1  0.50000000  0.37560034  0.97327963  1
  C  C21  1  0.50000000  0.31148917  0.53497548  1
  C  C22  1  0.50000000  0.31568499  0.69593643  1
  C  C23  1  0.50000000  0.31496082  0.85971002  1
  C  C24  1  0.50000000  0.34858487  0.06142724  1
  C  C25  1  0.50000000  0.34404537  0.55609583  1
  C  C26  1  0.50000000  0.34894286  0.22360563  1
  C  C27  1  0.50000000  0.34632966  0.72253527  1
  C  C28  1  0.50000000  0.34915778  0.38612436  1
  C  C29  1  0.50000000  0.34533375  0.88853349  1
  C  C30  1  0.50000000  0.40917624  0.11175934  1
  C  C31  1  0.50000000  0.40698766  0.61066988  1
  C  C32  1  0.50000000  0.40985280  0.27757871  1
  C  C33  1  0.50000000  0.40747210  0.77795336  1
  C  C34  1  0.50000000  0.40823601  0.44399939  1
  C  C35  1  0.50000000  0.40645626  0.94544121  1
  C  C36  1  0.50000000  0.44001846  0.13920686  1
  C  C37  1  0.50000000  0.43778939  0.63855214  1
  C  C38  1  0.50000000  0.44030853  0.30580909  1
  C  C39  1  0.50000000  0.43803199  0.80590947  1
  C  C40  1  0.50000000  0.43872812  0.47214368  1
  C  C41  1  0.50000000  0.43787552  0.97270914  1
  C  C42  1  0.50000000  0.37713036  0.02918066  1
  C  C43  1  0.50000000  0.37552752  0.52680700  1
  C  C44  1  0.50000000  0.37926086  0.19577682  1
  C  C45  1  0.50000000  0.37693743  0.69423046  1
  C  C46  1  0.50000000  0.37930868  0.35925479  1
  C  C47  1  0.50000000  0.37653076  0.86123698  1
  C  C48  1  0.50000000  0.40830617  0.05609467  1
  C  C49  1  0.50000000  0.40640131  0.55462066  1
  C  C50  1  0.50000000  0.40986417  0.22253119  1
  C  C51  1  0.50000000  0.40743889  0.72208503  1
  C  C52  1  0.50000000  0.40914649  0.38833967  1
  C  C53  1  0.50000000  0.40702236  0.88938376  1
  C  C54  1  0.50000000  0.47041903  0.11104500  1
  C  C55  1  0.50000000  0.46879099  0.61092260  1
  C  C56  1  0.50000000  0.47092356  0.27784407  1
  C  C57  1  0.50000000  0.46881882  0.77780356  1
  C  C58  1  0.50000000  0.46974643  0.44447775  1
  C  C59  1  0.50000000  0.46874958  0.94457784  1
  C  C60  1  0.50000000  0.50107990  0.13869896  1
  C  C61  1  0.50000000  0.49945616  0.63881407  1
  C  C62  1  0.50000000  0.50134745  0.30573378  1
  C  C63  1  0.50000000  0.49950774  0.80550893  1
  C  C64  1  0.50000000  0.50013318  0.47244074  1
  C  C65  1  0.50000000  0.49969323  0.97202190  1
  C  C66  1  0.50000000  0.43877473  0.02793080  1
  C  C67  1  0.50000000  0.43783321  0.52735334  1
  C  C68  1  0.50000000  0.44032413  0.19432943  1
  C  C69  1  0.50000000  0.43798974  0.69415258  1
  C  C70  1  0.50000000  0.44000380  0.36092024  1
  C  C71  1  0.50000000  0.43782005  0.86148140  1
  C  C72  1  0.50000000  0.46978353  0.05560556  1
  C  C73  1  0.50000000  0.46872223  0.55543671  1
  C  C74  1  0.50000000  0.47093071  0.22230048  1
  C  C75  1  0.50000000  0.46879806  0.72221397  1
  C  C76  1  0.50000000  0.47040621  0.38906111  1
  C  C77  1  0.50000000  0.46882768  0.88910048  1
  C  C78  1  0.50000000  0.53149351  0.11065222  1
  C  C79  1  0.50000000  0.53029652  0.61124565  1
  C  C80  1  0.50000000  0.53197491  0.27773704  1
  C  C81  1  0.50000000  0.53023999  0.77768204  1
  C  C82  1  0.50000000  0.53095135  0.44474666  1
  C  C83  1  0.50000000  0.53034971  0.94402672  1
  C  C84  1  0.50000000  0.56243549  0.13862650  1
  C  C85  1  0.50000000  0.56118124  0.63921690  1
  C  C86  1  0.50000000  0.56269244  0.30579882  1
  C  C87  1  0.50000000  0.56116946  0.80544454  1
  C  C88  1  0.50000000  0.56147908  0.47297943  1
  C  C89  1  0.50000000  0.56131912  0.97174864  1
  C  C90  1  0.50000000  0.50017907  0.02765377  1
  C  C91  1  0.50000000  0.49965293  0.52803185  1
  C  C92  1  0.50000000  0.50134282  0.19438982  1
  C  C93  1  0.50000000  0.49948832  0.69449955  1
  C  C94  1  0.50000000  0.50107328  0.36142880  1
  C  C95  1  0.50000000  0.49948453  0.86119428  1
  C  C96  1  0.50000000  0.53096941  0.05534123  1
  C  C97  1  0.50000000  0.53031396  0.55600327  1
  C  C98  1  0.50000000  0.53196234  0.22238758  1
  C  C99  1  0.50000000  0.53023139  0.72230998  1
  C  C100  1  0.50000000  0.53148585  0.38947375  1
  C  C101  1  0.50000000  0.53032182  0.88876293  1
  C  C102  1  0.50000000  0.59287141  0.11071129  1
  C  C103  1  0.50000000  0.59191556  0.61175486  1
  C  C104  1  0.50000000  0.59334283  0.27819920  1
  C  C105  1  0.50000000  0.59191435  0.77783639  1
  C  C106  1  0.50000000  0.59232451  0.44566012  1
  C  C107  1  0.50000000  0.59189034  0.94380090  1
  C  C108  1  0.50000000  0.62287099  0.13946972  1
  C  C109  1  0.50000000  0.62274749  0.63934560  1
  C  C110  1  0.50000000  0.62314129  0.30741693  1
  C  C111  1  0.50000000  0.62268416  0.80554493  1
  C  C112  1  0.50000000  0.62179716  0.47442723  1
  C  C113  1  0.50000000  0.62254467  0.97172166  1
  C  C114  1  0.50000000  0.56150636  0.02711195  1
  C  C115  1  0.50000000  0.56129212  0.52831450  1
  C  C116  1  0.50000000  0.56266856  0.19432908  1
  C  C117  1  0.50000000  0.56116652  0.69455844  1
  C  C118  1  0.50000000  0.56242150  0.36151213  1
  C  C119  1  0.50000000  0.56120328  0.86079415  1
  C  C120  1  0.50000000  0.59235533  0.05446293  1
  C  C121  1  0.50000000  0.59186911  0.55625027  1
  C  C122  1  0.50000000  0.59329853  0.22204633  1
  C  C123  1  0.50000000  0.59191408  0.72217301  1
  C  C124  1  0.50000000  0.59284660  0.38943252  1
  C  C125  1  0.50000000  0.59194017  0.88827761  1
  C  C126  1  0.50000000  0.65376969  0.61144769  1
  C  C127  1  0.50000000  0.65371134  0.77771122  1
  C  C128  1  0.50000000  0.65403994  0.94370166  1
  C  C129  1  0.50000000  0.68461381  0.63888214  1
  C  C130  1  0.50000000  0.68438041  0.80506032  1
  C  C131  1  0.50000000  0.68471943  0.96974629  1
  C  C132  1  0.50000000  0.62181464  0.02566140  1
  C  C133  1  0.50000000  0.62253482  0.52836122  1
  C  C134  1  0.50000000  0.62310017  0.19285259  1
  C  C135  1  0.50000000  0.62268474  0.69447003  1
  C  C136  1  0.50000000  0.62287834  0.36078171  1
  C  C137  1  0.50000000  0.62276529  0.86064831  1
  C  C138  1  0.50000000  0.65402395  0.55629309  1
  C  C139  1  0.50000000  0.65372001  0.72232070  1
  C  C140  1  0.50000000  0.65380464  0.88851840  1
  C  C141  1  0.50000000  0.71463704  0.61080594  1
  C  C142  1  0.50000000  0.71431725  0.77665968  1
  C  C143  1  0.50000000  0.71472184  0.94281493  1
  C  C144  1  0.50000000  0.68467671  0.53012568  1
  C  C145  1  0.50000000  0.68439801  0.69495640  1
  C  C146  1  0.50000000  0.68464300  0.86109730  1
  C  C147  1  0.50000000  0.71465685  0.55709908  1
  C  C148  1  0.50000000  0.71433367  0.72345374  1
  C  C149  1  0.50000000  0.71470177  0.88909332  1
  H  H150  1  0.50000000  0.26088081  0.63853575  1
  H  H151  1  0.50000000  0.26170542  0.79612631  1
  H  H152  1  0.50000000  0.25841238  0.95720430  1
  H  H153  1  0.50000000  0.25833701  0.54319381  1
  H  H154  1  0.50000000  0.26161788  0.70447926  1
  H  H155  1  0.50000000  0.26072855  0.86208410  1
  H  H156  1  0.50000000  0.73855713  0.63082548  1
  H  H157  1  0.50000000  0.73827084  0.79659874  1
  H  H158  1  0.50000000  0.73831226  0.96405941  1
  H  H159  1  0.50000000  0.73834418  0.53615390  1
  H  H160  1  0.50000000  0.73832122  0.70358830  1
  H  H161  1  0.50000000  0.73855406  0.86883972  1
  H  H162  1  0.50000000  0.68552659  0.48789571  1
  H  H163  1  0.50000000  0.30601228  0.00555615  1
  H  H164  1  0.50000000  0.32531125  0.13392102  1
  H  H165  1  0.50000000  0.32504057  0.29637369  1
  H  H166  1  0.50000000  0.32370104  0.45299214  1
  H  H167  1  0.50000000  0.30604232  0.49458108  1
  H  H168  1  0.50000000  0.32387958  0.04668782  1
  H  H169  1  0.50000000  0.32514768  0.20337725  1
  H  H170  1  0.50000000  0.32534908  0.36594094  1
  H  H171  1  0.50000000  0.64686992  0.11956961  1
  H  H172  1  0.50000000  0.64723560  0.28782939  1
  H  H173  1  0.50000000  0.64529308  0.45353584  1
  H  H174  1  0.50000000  0.68563376  0.01192894  1
  H  H175  1  0.50000000  0.64533594  0.04643896  1
  H  H176  1  0.50000000  0.64716487  0.21254996  1
  H  H177  1  0.50000000  0.64687089  0.38071108  1
