# generated using pymatgen
data_H5C27
_symmetry_space_group_name_H-M   'P 1'
_cell_length_a   10.00000000
_cell_length_b   41.10890000
_cell_length_c   25.89354057
_cell_angle_alpha   90.00000000
_cell_angle_beta   90.00000000
_cell_angle_gamma   90.00000000
_symmetry_Int_Tables_number   1
_chemical_formula_structural   H5C27
_chemical_formula_sum   'H30 C162'
_cell_volume   10644.54969987
_cell_formula_units_Z   6
loop_
 _symmetry_equiv_pos_site_id
 _symmetry_equiv_pos_as_xyz
  1  'x, y, z'
loop_
 _atom_site_type_symbol
 _atom_site_label
 _atom_site_symmetry_multiplicity
 _atom_site_fract_x
 _atom_site_fract_y
 _atom_site_fract_z
 _atom_site_occupancy
  C  C0  1  0.50000000  0.28758424  0.64030534  1
  C  C1  1  0.50000000  0.28828853  0.96839866  1
  C  C2  1  0.50000000  0.34871967  0.64011108  1
  C  C3  1  0.50000000  0.34743139  0.96595659  1
  C  C4  1  0.50000000  0.41261861  0.30409107  1
  C  C5  1  0.50000000  0.40892749  0.63905884  1
  C  C6  1  0.50000000  0.40884343  0.97334429  1
  C  C7  1  0.50000000  0.47220814  0.30577214  1
  C  C8  1  0.50000000  0.46893835  0.63856297  1
  C  C9  1  0.50000000  0.46944527  0.97253431  1
  C  C10  1  0.50000000  0.53176510  0.30570405  1
  C  C11  1  0.50000000  0.52930836  0.63889212  1
  C  C12  1  0.50000000  0.52981158  0.97187871  1
  C  C13  1  0.50000000  0.59166690  0.30577320  1
  C  C14  1  0.50000000  0.58965848  0.63932670  1
  C  C15  1  0.50000000  0.59000552  0.97160469  1
  C  C16  1  0.50000000  0.65074382  0.30741044  1
  C  C17  1  0.50000000  0.64984810  0.63945390  1
  C  C18  1  0.50000000  0.64983443  0.97144419  1
  C  C19  1  0.50000000  0.71034744  0.63911330  1
  C  C20  1  0.50000000  0.71062888  0.96940705  1
  C  C21  1  0.50000000  0.28805276  0.69582618  1
  C  C22  1  0.50000000  0.34887170  0.69523802  1
  C  C23  1  0.50000000  0.41007910  0.02927905  1
  C  C24  1  0.50000000  0.41272595  0.35891162  1
  C  C25  1  0.50000000  0.40902132  0.69443605  1
  C  C26  1  0.50000000  0.47036056  0.02778742  1
  C  C27  1  0.50000000  0.47188440  0.36089440  1
  C  C28  1  0.50000000  0.46903177  0.69427503  1
  C  C29  1  0.50000000  0.53038352  0.02748701  1
  C  C30  1  0.50000000  0.53150967  0.36140100  1
  C  C31  1  0.50000000  0.52926763  0.69456511  1
  C  C32  1  0.50000000  0.59031174  0.02693020  1
  C  C33  1  0.50000000  0.59143427  0.36147231  1
  C  C34  1  0.50000000  0.58957081  0.69462267  1
  C  C35  1  0.50000000  0.64923848  0.02537941  1
  C  C36  1  0.50000000  0.65050011  0.36079617  1
  C  C37  1  0.50000000  0.64971417  0.69453469  1
  C  C38  1  0.50000000  0.71007047  0.69508878  1
  C  C39  1  0.50000000  0.25873884  0.72347714  1
  C  C40  1  0.50000000  0.31840583  0.72248770  1
  C  C41  1  0.50000000  0.38235029  0.06216873  1
  C  C42  1  0.50000000  0.38324579  0.38547748  1
  C  C43  1  0.50000000  0.37888877  0.72227932  1
  C  C44  1  0.50000000  0.44064943  0.05608491  1
  C  C45  1  0.50000000  0.44173362  0.38824982  1
  C  C46  1  0.50000000  0.43910744  0.72215918  1
  C  C47  1  0.50000000  0.50070114  0.05543483  1
  C  C48  1  0.50000000  0.50152322  0.38910784  1
  C  C49  1  0.50000000  0.49915525  0.72224384  1
  C  C50  1  0.50000000  0.56052632  0.05521112  1
  C  C51  1  0.50000000  0.56119390  0.38944708  1
  C  C52  1  0.50000000  0.55928184  0.72230847  1
  C  C53  1  0.50000000  0.62051386  0.05427320  1
  C  C54  1  0.50000000  0.62115440  0.38947515  1
  C  C55  1  0.50000000  0.61964156  0.72218021  1
  C  C56  1  0.50000000  0.68004691  0.72235504  1
  C  C57  1  0.50000000  0.73934965  0.72341564  1
  C  C58  1  0.50000000  0.25873575  0.77648633  1
  C  C59  1  0.50000000  0.31840444  0.77749498  1
  C  C60  1  0.50000000  0.38324588  0.11450860  1
  C  C61  1  0.50000000  0.38234262  0.43781742  1
  C  C62  1  0.50000000  0.37888950  0.77771783  1
  C  C63  1  0.50000000  0.44173625  0.11174923  1
  C  C64  1  0.50000000  0.44064506  0.44391360  1
  C  C65  1  0.50000000  0.43910774  0.77783860  1
  C  C66  1  0.50000000  0.50152558  0.11089423  1
  C  C67  1  0.50000000  0.50070147  0.44456621  1
  C  C68  1  0.50000000  0.49915795  0.77775990  1
  C  C69  1  0.50000000  0.56118890  0.11055658  1
  C  C70  1  0.50000000  0.56052386  0.44479297  1
  C  C71  1  0.50000000  0.55928545  0.77770411  1
  C  C72  1  0.50000000  0.62114726  0.11053954  1
  C  C73  1  0.50000000  0.62051317  0.44573950  1
  C  C74  1  0.50000000  0.61964117  0.77783936  1
  C  C75  1  0.50000000  0.68004814  0.77766758  1
  C  C76  1  0.50000000  0.73935690  0.77658819  1
  C  C77  1  0.50000000  0.28804731  0.80414669  1
  C  C78  1  0.50000000  0.34887027  0.80474806  1
  C  C79  1  0.50000000  0.41272500  0.14108190  1
  C  C80  1  0.50000000  0.41007104  0.47071679  1
  C  C81  1  0.50000000  0.40902214  0.80556227  1
  C  C82  1  0.50000000  0.47188661  0.13910415  1
  C  C83  1  0.50000000  0.47036138  0.47220361  1
  C  C84  1  0.50000000  0.46903284  0.80572451  1
  C  C85  1  0.50000000  0.53150800  0.13860161  1
  C  C86  1  0.50000000  0.53038201  0.47252391  1
  C  C87  1  0.50000000  0.52927037  0.80544329  1
  C  C88  1  0.50000000  0.59142704  0.13853290  1
  C  C89  1  0.50000000  0.59030944  0.47307602  1
  C  C90  1  0.50000000  0.58957273  0.80538900  1
  C  C91  1  0.50000000  0.65049864  0.13920904  1
  C  C92  1  0.50000000  0.64923154  0.47462868  1
  C  C93  1  0.50000000  0.64971464  0.80548704  1
  C  C94  1  0.50000000  0.71007606  0.80492238  1
  C  C95  1  0.50000000  0.28829512  0.53156676  1
  C  C96  1  0.50000000  0.28757668  0.85966663  1
  C  C97  1  0.50000000  0.34744138  0.53403462  1
  C  C98  1  0.50000000  0.34871844  0.85987368  1
  C  C99  1  0.50000000  0.41261572  0.19590402  1
  C  C100  1  0.50000000  0.40884298  0.52665052  1
  C  C101  1  0.50000000  0.40892678  0.86094009  1
  C  C102  1  0.50000000  0.47220659  0.19422714  1
  C  C103  1  0.50000000  0.46944567  0.52746086  1
  C  C104  1  0.50000000  0.46893741  0.86143809  1
  C  C105  1  0.50000000  0.53176645  0.19429213  1
  C  C106  1  0.50000000  0.52980759  0.52812989  1
  C  C107  1  0.50000000  0.52930777  0.86111745  1
  C  C108  1  0.50000000  0.59167312  0.19422852  1
  C  C109  1  0.50000000  0.59000225  0.52840660  1
  C  C110  1  0.50000000  0.58966684  0.86068327  1
  C  C111  1  0.50000000  0.65073842  0.19259864  1
  C  C112  1  0.50000000  0.64982670  0.52856245  1
  C  C113  1  0.50000000  0.64985655  0.86056980  1
  C  C114  1  0.50000000  0.71062351  0.53062148  1
  C  C115  1  0.50000000  0.71035997  0.86089774  1
  C  C116  1  0.50000000  0.25882837  0.55739376  1
  C  C117  1  0.50000000  0.25859557  0.88850462  1
  C  C118  1  0.50000000  0.31772728  0.55998892  1
  C  C119  1  0.50000000  0.31795410  0.88559935  1
  C  C120  1  0.50000000  0.38295584  0.22365757  1
  C  C121  1  0.50000000  0.37825134  0.55612754  1
  C  C122  1  0.50000000  0.37871362  0.88803445  1
  C  C123  1  0.50000000  0.44252577  0.22252158  1
  C  C124  1  0.50000000  0.43877365  0.55467967  1
  C  C125  1  0.50000000  0.43896546  0.88916748  1
  C  C126  1  0.50000000  0.50207360  0.22223348  1
  C  C127  1  0.50000000  0.49951558  0.55561075  1
  C  C128  1  0.50000000  0.49934644  0.88898000  1
  C  C129  1  0.50000000  0.56167687  0.22230006  1
  C  C130  1  0.50000000  0.55970028  0.55606957  1
  C  C131  1  0.50000000  0.55950233  0.88865795  1
  C  C132  1  0.50000000  0.62164727  0.22187961  1
  C  C133  1  0.50000000  0.61984133  0.55640146  1
  C  C134  1  0.50000000  0.61976613  0.88813246  1
  C  C135  1  0.50000000  0.68056778  0.55655201  1
  C  C136  1  0.50000000  0.68023494  0.88835078  1
  C  C137  1  0.50000000  0.73990063  0.55763450  1
  C  C138  1  0.50000000  0.73978479  0.88870935  1
  C  C139  1  0.50000000  0.25860459  0.61146574  1
  C  C140  1  0.50000000  0.25882173  0.94257469  1
  C  C141  1  0.50000000  0.31795904  0.61437386  1
  C  C142  1  0.50000000  0.31772178  0.93998340  1
  C  C143  1  0.50000000  0.38295924  0.27634221  1
  C  C144  1  0.50000000  0.37871651  0.61195931  1
  C  C145  1  0.50000000  0.37824634  0.94386974  1
  C  C146  1  0.50000000  0.44252859  0.27747690  1
  C  C147  1  0.50000000  0.43896626  0.61082874  1
  C  C148  1  0.50000000  0.43877300  0.94531281  1
  C  C149  1  0.50000000  0.50207400  0.27776987  1
  C  C150  1  0.50000000  0.49934731  0.61102314  1
  C  C151  1  0.50000000  0.49951958  0.94439337  1
  C  C152  1  0.50000000  0.56167359  0.27768540  1
  C  C153  1  0.50000000  0.55949829  0.61134756  1
  C  C154  1  0.50000000  0.55970434  0.94393773  1
  C  C155  1  0.50000000  0.62164508  0.27812860  1
  C  C156  1  0.50000000  0.61975872  0.61188866  1
  C  C157  1  0.50000000  0.61984534  0.94361595  1
  C  C158  1  0.50000000  0.68022153  0.61166224  1
  C  C159  1  0.50000000  0.68058022  0.94346401  1
  C  C160  1  0.50000000  0.73977218  0.61131836  1
  C  C161  1  0.50000000  0.73990843  0.94239840  1
  H  H162  1  0.50000000  0.23555209  0.70297153  1
  H  H163  1  0.50000000  0.76275029  0.70342023  1
  H  H164  1  0.50000000  0.23554443  0.79697986  1
  H  H165  1  0.50000000  0.76277405  0.79655553  1
  H  H166  1  0.50000000  0.23585055  0.53596457  1
  H  H167  1  0.50000000  0.23508495  0.86884806  1
  H  H168  1  0.50000000  0.76302814  0.53655778  1
  H  H169  1  0.50000000  0.76310090  0.86845822  1
  H  H170  1  0.50000000  0.23510096  0.63114239  1
  H  H171  1  0.50000000  0.23584440  0.96400250  1
  H  H172  1  0.50000000  0.76307840  0.63158019  1
  H  H173  1  0.50000000  0.76304344  0.96348397  1
  H  H174  1  0.50000000  0.28929353  0.01070418  1
  H  H175  1  0.50000000  0.34300090  0.00636491  1
  H  H176  1  0.50000000  0.67430453  0.28782253  1
  H  H177  1  0.50000000  0.71165873  0.01154944  1
  H  H178  1  0.50000000  0.67229080  0.04599977  1
  H  H179  1  0.50000000  0.67396546  0.38069306  1
  H  H180  1  0.50000000  0.35778495  0.04926234  1
  H  H181  1  0.50000000  0.36008022  0.36502964  1
  H  H182  1  0.50000000  0.36007521  0.13494318  1
  H  H183  1  0.50000000  0.35777225  0.45070734  1
  H  H184  1  0.50000000  0.67397216  0.11933395  1
  H  H185  1  0.50000000  0.67228380  0.45400313  1
  H  H186  1  0.50000000  0.28928998  0.48925883  1
  H  H187  1  0.50000000  0.34303351  0.49362380  1
  H  H188  1  0.50000000  0.67429976  0.21217606  1
  H  H189  1  0.50000000  0.71166795  0.48847862  1
  H  H190  1  0.50000000  0.35965966  0.20355717  1
  H  H191  1  0.50000000  0.35967090  0.29645778  1
