# generated using pymatgen
data_H7C36
_symmetry_space_group_name_H-M   'P 1'
_cell_length_a   20.00000000
_cell_length_b   37.22700000
_cell_length_c   25.91273736
_cell_angle_alpha   90.00000000
_cell_angle_beta   90.00000000
_cell_angle_gamma   90.00000000
_symmetry_Int_Tables_number   1
_chemical_formula_structural   H7C36
_chemical_formula_sum   'H28 C144'
_cell_volume   19293.06947398
_cell_formula_units_Z   4
loop_
 _symmetry_equiv_pos_site_id
 _symmetry_equiv_pos_as_xyz
  1  'x, y, z'
loop_
 _atom_site_type_symbol
 _atom_site_label
 _atom_site_symmetry_multiplicity
 _atom_site_fract_x
 _atom_site_fract_y
 _atom_site_fract_z
 _atom_site_occupancy
  C  C0  1  0.50000000  0.31577169  0.22193251  1
  C  C1  1  0.50000000  0.31798727  0.55603207  1
  C  C2  1  0.50000000  0.31833722  0.88814882  1
  C  C3  1  0.50000000  0.38201255  0.22234888  1
  C  C4  1  0.50000000  0.38439893  0.55588433  1
  C  C5  1  0.50000000  0.38478343  0.88891268  1
  C  C6  1  0.50000000  0.44789755  0.22224134  1
  C  C7  1  0.50000000  0.45081072  0.55542193  1
  C  C8  1  0.50000000  0.45106857  0.88914080  1
  C  C9  1  0.50000000  0.51369206  0.22253716  1
  C  C10  1  0.50000000  0.51790533  0.55456825  1
  C  C11  1  0.50000000  0.51769753  0.88923658  1
  C  C12  1  0.50000000  0.57947965  0.22365166  1
  C  C13  1  0.50000000  0.58474036  0.55614944  1
  C  C14  1  0.50000000  0.58420728  0.88801810  1
  C  C15  1  0.50000000  0.65159670  0.56011514  1
  C  C16  1  0.50000000  0.65129115  0.88551533  1
  C  C17  1  0.50000000  0.71666446  0.55766091  1
  C  C18  1  0.50000000  0.71684479  0.88829966  1
  C  C19  1  0.50000000  0.31577582  0.27808400  1
  C  C20  1  0.50000000  0.31833992  0.61187407  1
  C  C21  1  0.50000000  0.31796280  0.94399321  1
  C  C22  1  0.50000000  0.38201237  0.27766539  1
  C  C23  1  0.50000000  0.38479404  0.61111268  1
  C  C24  1  0.50000000  0.38437516  0.94413614  1
  C  C25  1  0.50000000  0.44789597  0.27776456  1
  C  C26  1  0.50000000  0.45106252  0.61087280  1
  C  C27  1  0.50000000  0.45079567  0.94459474  1
  C  C28  1  0.50000000  0.51368808  0.27746047  1
  C  C29  1  0.50000000  0.51770965  0.61071999  1
  C  C30  1  0.50000000  0.51788886  0.94540185  1
  C  C31  1  0.50000000  0.57947321  0.27634329  1
  C  C32  1  0.50000000  0.58421508  0.61195885  1
  C  C33  1  0.50000000  0.58473103  0.94382680  1
  C  C34  1  0.50000000  0.65129023  0.61446736  1
  C  C35  1  0.50000000  0.65159433  0.93986652  1
  C  C36  1  0.50000000  0.71684313  0.61169105  1
  C  C37  1  0.50000000  0.71666440  0.94233079  1
  C  C38  1  0.50000000  0.28359365  0.30734591  1
  C  C39  1  0.50000000  0.28609895  0.64063911  1
  C  C40  1  0.50000000  0.28537835  0.97221880  1
  C  C41  1  0.50000000  0.34888168  0.30571734  1
  C  C42  1  0.50000000  0.35156399  0.63911088  1
  C  C43  1  0.50000000  0.35082705  0.97184922  1
  C  C44  1  0.50000000  0.41507518  0.30564900  1
  C  C45  1  0.50000000  0.41808530  0.63872976  1
  C  C46  1  0.50000000  0.41735655  0.97206212  1
  C  C47  1  0.50000000  0.48087584  0.30574385  1
  C  C48  1  0.50000000  0.48466559  0.63847791  1
  C  C49  1  0.50000000  0.48399989  0.97268702  1
  C  C50  1  0.50000000  0.54672512  0.30406928  1
  C  C51  1  0.50000000  0.55085176  0.63902156  1
  C  C52  1  0.50000000  0.55092449  0.97334656  1
  C  C53  1  0.50000000  0.61731516  0.64015228  1
  C  C54  1  0.50000000  0.61879137  0.96585220  1
  C  C55  1  0.50000000  0.68482006  0.64042985  1
  C  C56  1  0.50000000  0.68414092  0.96819778  1
  C  C57  1  0.50000000  0.28482724  0.02540520  1
  C  C58  1  0.50000000  0.28387528  0.36063944  1
  C  C59  1  0.50000000  0.28628203  0.69375009  1
  C  C60  1  0.50000000  0.35020376  0.02733916  1
  C  C61  1  0.50000000  0.34919754  0.36138059  1
  C  C62  1  0.50000000  0.35177177  0.69454308  1
  C  C63  1  0.50000000  0.41658655  0.02769151  1
  C  C64  1  0.50000000  0.41542892  0.36129606  1
  C  C65  1  0.50000000  0.41820270  0.69448628  1
  C  C66  1  0.50000000  0.48291210  0.02790370  1
  C  C67  1  0.50000000  0.48124688  0.36084361  1
  C  C68  1  0.50000000  0.48461903  0.69418270  1
  C  C69  1  0.50000000  0.54948017  0.02932420  1
  C  C70  1  0.50000000  0.54662254  0.35892195  1
  C  C71  1  0.50000000  0.55076715  0.69442341  1
  C  C72  1  0.50000000  0.61714543  0.69526532  1
  C  C73  1  0.50000000  0.68431253  0.69590063  1
  C  C74  1  0.50000000  0.31690368  0.05464860  1
  C  C75  1  0.50000000  0.31633645  0.38935122  1
  C  C76  1  0.50000000  0.31873721  0.72207911  1
  C  C77  1  0.50000000  0.38325813  0.05546092  1
  C  C78  1  0.50000000  0.38257894  0.38932550  1
  C  C79  1  0.50000000  0.38517752  0.72232500  1
  C  C80  1  0.50000000  0.44937701  0.05552251  1
  C  C81  1  0.50000000  0.44851803  0.38903735  1
  C  C82  1  0.50000000  0.45135770  0.72215829  1
  C  C83  1  0.50000000  0.51573914  0.05616244  1
  C  C84  1  0.50000000  0.51456574  0.38818766  1
  C  C85  1  0.50000000  0.51758769  0.72212969  1
  C  C86  1  0.50000000  0.58009584  0.06212529  1
  C  C87  1  0.50000000  0.57918801  0.38549414  1
  C  C88  1  0.50000000  0.58401024  0.72227257  1
  C  C89  1  0.50000000  0.65078337  0.72251299  1
  C  C90  1  0.50000000  0.71670742  0.72350086  1
  C  C91  1  0.50000000  0.31632677  0.11066779  1
  C  C92  1  0.50000000  0.31692337  0.44538155  1
  C  C93  1  0.50000000  0.31874732  0.77793379  1
  C  C94  1  0.50000000  0.38257033  0.11070566  1
  C  C95  1  0.50000000  0.38327240  0.44457515  1
  C  C96  1  0.50000000  0.38519565  0.77768436  1
  C  C97  1  0.50000000  0.44851484  0.11098024  1
  C  C98  1  0.50000000  0.44938596  0.44449735  1
  C  C99  1  0.50000000  0.45137299  0.77775976  1
  C  C100  1  0.50000000  0.51456774  0.11182103  1
  C  C101  1  0.50000000  0.51574259  0.44384563  1
  C  C102  1  0.50000000  0.51758507  0.77783576  1
  C  C103  1  0.50000000  0.57919151  0.11448904  1
  C  C104  1  0.50000000  0.58010620  0.43785278  1
  C  C105  1  0.50000000  0.58401079  0.77768622  1
  C  C106  1  0.50000000  0.65078345  0.77747354  1
  C  C107  1  0.50000000  0.71670853  0.77647688  1
  C  C108  1  0.50000000  0.28386434  0.13936847  1
  C  C109  1  0.50000000  0.28484656  0.47462864  1
  C  C110  1  0.50000000  0.28629803  0.80626673  1
  C  C111  1  0.50000000  0.34918775  0.13864243  1
  C  C112  1  0.50000000  0.35022039  0.47269738  1
  C  C113  1  0.50000000  0.35177834  0.80546688  1
  C  C114  1  0.50000000  0.41542673  0.13872211  1
  C  C115  1  0.50000000  0.41660350  0.47234481  1
  C  C116  1  0.50000000  0.41822477  0.80549415  1
  C  C117  1  0.50000000  0.48124846  0.13916329  1
  C  C118  1  0.50000000  0.48291734  0.47211529  1
  C  C119  1  0.50000000  0.48461160  0.80576138  1
  C  C120  1  0.50000000  0.54663011  0.14107739  1
  C  C121  1  0.50000000  0.54949237  0.47066076  1
  C  C122  1  0.50000000  0.55076497  0.80552506  1
  C  C123  1  0.50000000  0.61714140  0.80471121  1
  C  C124  1  0.50000000  0.68431510  0.80408247  1
  C  C125  1  0.50000000  0.28358556  0.19266509  1
  C  C126  1  0.50000000  0.28539743  0.52781901  1
  C  C127  1  0.50000000  0.28610543  0.85938036  1
  C  C128  1  0.50000000  0.34887671  0.19430001  1
  C  C129  1  0.50000000  0.35084878  0.52817334  1
  C  C130  1  0.50000000  0.35156001  0.86091145  1
  C  C131  1  0.50000000  0.41507713  0.19436099  1
  C  C132  1  0.50000000  0.41737639  0.52796191  1
  C  C133  1  0.50000000  0.41807778  0.86129568  1
  C  C134  1  0.50000000  0.48087779  0.19425936  1
  C  C135  1  0.50000000  0.48401272  0.52732284  1
  C  C136  1  0.50000000  0.48465225  0.86147562  1
  C  C137  1  0.50000000  0.54673202  0.19592967  1
  C  C138  1  0.50000000  0.55093910  0.52662752  1
  C  C139  1  0.50000000  0.55084463  0.86094118  1
  C  C140  1  0.50000000  0.61879685  0.53412732  1
  C  C141  1  0.50000000  0.61731168  0.85983037  1
  C  C142  1  0.50000000  0.68414390  0.53178691  1
  C  C143  1  0.50000000  0.68482432  0.85955441  1
  H  H144  1  0.50000000  0.74211149  0.53638245  1
  H  H145  1  0.50000000  0.74280757  0.86864731  1
  H  H146  1  0.50000000  0.74280213  0.63135619  1
  H  H147  1  0.50000000  0.74211382  0.96360371  1
  H  H148  1  0.50000000  0.25755039  0.28779756  1
  H  H149  1  0.50000000  0.26017937  0.62090689  1
  H  H150  1  0.50000000  0.25969340  0.95184427  1
  H  H151  1  0.50000000  0.25880152  0.04494659  1
  H  H152  1  0.50000000  0.25800515  0.38061342  1
  H  H153  1  0.50000000  0.26047242  0.71377672  1
  H  H154  1  0.50000000  0.74235471  0.70305103  1
  H  H155  1  0.50000000  0.74236097  0.79691710  1
  H  H156  1  0.50000000  0.25799866  0.11938237  1
  H  H157  1  0.50000000  0.25882448  0.45508220  1
  H  H158  1  0.50000000  0.26047723  0.78627251  1
  H  H159  1  0.50000000  0.25753845  0.21219601  1
  H  H160  1  0.50000000  0.25972667  0.54821455  1
  H  H161  1  0.50000000  0.26018906  0.87910551  1
  H  H162  1  0.50000000  0.60523589  0.20361334  1
  H  H163  1  0.50000000  0.60522108  0.29640970  1
  H  H164  1  0.50000000  0.62365723  0.00623895  1
  H  H165  1  0.50000000  0.68305079  0.01047570  1
  H  H166  1  0.50000000  0.60715064  0.04894220  1
  H  H167  1  0.50000000  0.60484828  0.36517730  1
  H  H168  1  0.50000000  0.60486086  0.13478874  1
  H  H169  1  0.50000000  0.60716712  0.45101209  1
  H  H170  1  0.50000000  0.62364463  0.49374158  1
  H  H171  1  0.50000000  0.68306422  0.48950882  1
