# generated using pymatgen
data_H5C18
_symmetry_space_group_name_H-M   'P 1'
_cell_length_a   20.00000000
_cell_length_b   37.22700000
_cell_length_c   26.01686137
_cell_angle_alpha   90.00000000
_cell_angle_beta   90.00000000
_cell_angle_gamma   90.00000000
_symmetry_Int_Tables_number   1
_chemical_formula_structural   H5C18
_chemical_formula_sum   'H40 C144'
_cell_volume   19370.59396765
_cell_formula_units_Z   8
loop_
 _symmetry_equiv_pos_site_id
 _symmetry_equiv_pos_as_xyz
  1  'x, y, z'
loop_
 _atom_site_type_symbol
 _atom_site_label
 _atom_site_symmetry_multiplicity
 _atom_site_fract_x
 _atom_site_fract_y
 _atom_site_fract_z
 _atom_site_occupancy
  C  C0  1  0.50000000  0.31347808  0.22173389  1
  C  C1  1  0.50000000  0.31830031  0.55603307  1
  C  C2  1  0.50000000  0.31865539  0.88806610  1
  C  C3  1  0.50000000  0.37955238  0.22262732  1
  C  C4  1  0.50000000  0.38513294  0.55506963  1
  C  C5  1  0.50000000  0.38514331  0.88903851  1
  C  C6  1  0.50000000  0.44513924  0.22373231  1
  C  C7  1  0.50000000  0.45152705  0.55657183  1
  C  C8  1  0.50000000  0.45123010  0.88779789  1
  C  C9  1  0.50000000  0.51823118  0.56130668  1
  C  C10  1  0.50000000  0.51805107  0.88452286  1
  C  C11  1  0.50000000  0.58383422  0.55775077  1
  C  C12  1  0.50000000  0.58447163  0.88672947  1
  C  C13  1  0.50000000  0.64881915  0.22199057  1
  C  C14  1  0.50000000  0.65090338  0.55639471  1
  C  C15  1  0.50000000  0.65109546  0.88821848  1
  C  C16  1  0.50000000  0.71436657  0.22362085  1
  C  C17  1  0.50000000  0.71633072  0.55677594  1
  C  C18  1  0.50000000  0.71645793  0.89013030  1
  C  C19  1  0.50000000  0.31346175  0.27827297  1
  C  C20  1  0.50000000  0.31858596  0.61197095  1
  C  C21  1  0.50000000  0.31839864  0.94399979  1
  C  C22  1  0.50000000  0.37953243  0.27746420  1
  C  C23  1  0.50000000  0.38507888  0.61098540  1
  C  C24  1  0.50000000  0.38523025  0.94497437  1
  C  C25  1  0.50000000  0.44511848  0.27645750  1
  C  C26  1  0.50000000  0.45119080  0.61217442  1
  C  C27  1  0.50000000  0.45157666  0.94339513  1
  C  C28  1  0.50000000  0.51802390  0.61546110  1
  C  C29  1  0.50000000  0.51826158  0.93869137  1
  C  C30  1  0.50000000  0.58444228  0.61322562  1
  C  C31  1  0.50000000  0.58388175  0.94219976  1
  C  C32  1  0.50000000  0.64879141  0.27798405  1
  C  C33  1  0.50000000  0.65106478  0.61167698  1
  C  C34  1  0.50000000  0.65095663  0.94351696  1
  C  C35  1  0.50000000  0.71433976  0.27646618  1
  C  C36  1  0.50000000  0.71644674  0.60968198  1
  C  C37  1  0.50000000  0.71636052  0.94303795  1
  C  C38  1  0.50000000  0.28160826  0.30785710  1
  C  C39  1  0.50000000  0.28649406  0.64058243  1
  C  C40  1  0.50000000  0.28571556  0.97148403  1
  C  C41  1  0.50000000  0.34652352  0.30581049  1
  C  C42  1  0.50000000  0.35187463  0.63905048  1
  C  C43  1  0.50000000  0.35117399  0.97214094  1
  C  C44  1  0.50000000  0.41257063  0.30401707  1
  C  C45  1  0.50000000  0.41789050  0.63919696  1
  C  C46  1  0.50000000  0.41809239  0.97290217  1
  C  C47  1  0.50000000  0.48424233  0.64069438  1
  C  C48  1  0.50000000  0.48595252  0.96524542  1
  C  C49  1  0.50000000  0.55147758  0.64144299  1
  C  C50  1  0.50000000  0.55092040  0.96639743  1
  C  C51  1  0.50000000  0.61653301  0.30751722  1
  C  C52  1  0.50000000  0.61767887  0.63993163  1
  C  C53  1  0.50000000  0.61765458  0.97114720  1
  C  C54  1  0.50000000  0.68191262  0.30558362  1
  C  C55  1  0.50000000  0.68408829  0.63882301  1
  C  C56  1  0.50000000  0.68381621  0.97175942  1
  C  C57  1  0.50000000  0.28449576  0.02458890  1
  C  C58  1  0.50000000  0.28221846  0.36125188  1
  C  C59  1  0.50000000  0.28648946  0.69376181  1
  C  C60  1  0.50000000  0.34971165  0.02744879  1
  C  C61  1  0.50000000  0.34719326  0.36125061  1
  C  C62  1  0.50000000  0.35180531  0.69446204  1
  C  C63  1  0.50000000  0.41641049  0.02948116  1
  C  C64  1  0.50000000  0.41277071  0.35922322  1
  C  C65  1  0.50000000  0.41783675  0.69469546  1
  C  C66  1  0.50000000  0.48425364  0.69559843  1
  C  C67  1  0.50000000  0.55135513  0.69598609  1
  C  C68  1  0.50000000  0.61813787  0.02470313  1
  C  C69  1  0.50000000  0.61680043  0.36052826  1
  C  C70  1  0.50000000  0.61782093  0.69474838  1
  C  C71  1  0.50000000  0.68349743  0.02743617  1
  C  C72  1  0.50000000  0.68217153  0.36143623  1
  C  C73  1  0.50000000  0.68423001  0.69464915  1
  C  C74  1  0.50000000  0.31612457  0.05425247  1
  C  C75  1  0.50000000  0.31466850  0.38956903  1
  C  C76  1  0.50000000  0.31870661  0.72206582  1
  C  C77  1  0.50000000  0.38257824  0.05604834  1
  C  C78  1  0.50000000  0.38083152  0.38853557  1
  C  C79  1  0.50000000  0.38491260  0.72232032  1
  C  C80  1  0.50000000  0.44674393  0.06224695  1
  C  C81  1  0.50000000  0.44531005  0.38545232  1
  C  C82  1  0.50000000  0.45092181  0.72250782  1
  C  C83  1  0.50000000  0.51765390  0.72261366  1
  C  C84  1  0.50000000  0.58470859  0.72256380  1
  C  C85  1  0.50000000  0.65002652  0.05427956  1
  C  C86  1  0.50000000  0.64930122  0.38952448  1
  C  C87  1  0.50000000  0.65117311  0.72233821  1
  C  C88  1  0.50000000  0.71560070  0.05717429  1
  C  C89  1  0.50000000  0.71491081  0.38994399  1
  C  C90  1  0.50000000  0.71651024  0.72333070  1
  C  C91  1  0.50000000  0.31474893  0.11046045  1
  C  C92  1  0.50000000  0.31601077  0.44578171  1
  C  C93  1  0.50000000  0.31872153  0.77799135  1
  C  C94  1  0.50000000  0.38091011  0.11154023  1
  C  C95  1  0.50000000  0.38245018  0.44401329  1
  C  C96  1  0.50000000  0.38492886  0.77767646  1
  C  C97  1  0.50000000  0.44537228  0.11471622  1
  C  C98  1  0.50000000  0.44659992  0.43791437  1
  C  C99  1  0.50000000  0.45093629  0.77746105  1
  C  C100  1  0.50000000  0.51766387  0.77733975  1
  C  C101  1  0.50000000  0.58471131  0.77738148  1
  C  C102  1  0.50000000  0.64939898  0.11044564  1
  C  C103  1  0.50000000  0.64990514  0.44565868  1
  C  C104  1  0.50000000  0.65118858  0.77760543  1
  C  C105  1  0.50000000  0.71499307  0.11005291  1
  C  C106  1  0.50000000  0.71549358  0.44280448  1
  C  C107  1  0.50000000  0.71652504  0.77645949  1
  C  C108  1  0.50000000  0.28227467  0.13872612  1
  C  C109  1  0.50000000  0.28437987  0.47544365  1
  C  C110  1  0.50000000  0.28651563  0.80631399  1
  C  C111  1  0.50000000  0.34725525  0.13879580  1
  C  C112  1  0.50000000  0.34958802  0.47259226  1
  C  C113  1  0.50000000  0.35183658  0.80556144  1
  C  C114  1  0.50000000  0.41282327  0.14090373  1
  C  C115  1  0.50000000  0.41625718  0.47059340  1
  C  C116  1  0.50000000  0.41786024  0.80528261  1
  C  C117  1  0.50000000  0.48427143  0.80436476  1
  C  C118  1  0.50000000  0.55136566  0.80397208  1
  C  C119  1  0.50000000  0.61687345  0.13940755  1
  C  C120  1  0.50000000  0.61801641  0.47524323  1
  C  C121  1  0.50000000  0.61783478  0.80519171  1
  C  C122  1  0.50000000  0.68225376  0.13857944  1
  C  C123  1  0.50000000  0.68337583  0.47248233  1
  C  C124  1  0.50000000  0.68425948  0.80520286  1
  C  C125  1  0.50000000  0.28163978  0.19212425  1
  C  C126  1  0.50000000  0.28560870  0.52856007  1
  C  C127  1  0.50000000  0.28654460  0.85949186  1
  C  C128  1  0.50000000  0.34655647  0.19423908  1
  C  C129  1  0.50000000  0.35107281  0.52789453  1
  C  C130  1  0.50000000  0.35193334  0.86097571  1
  C  C131  1  0.50000000  0.41260612  0.19611673  1
  C  C132  1  0.50000000  0.41799272  0.52714176  1
  C  C133  1  0.50000000  0.41793211  0.86078364  1
  C  C134  1  0.50000000  0.48592431  0.53475401  1
  C  C135  1  0.50000000  0.48427476  0.85927462  1
  C  C136  1  0.50000000  0.55087231  0.53355734  1
  C  C137  1  0.50000000  0.55149851  0.85852410  1
  C  C138  1  0.50000000  0.61657820  0.19242547  1
  C  C139  1  0.50000000  0.61758557  0.52878228  1
  C  C140  1  0.50000000  0.61770111  0.86000108  1
  C  C141  1  0.50000000  0.68196363  0.19444274  1
  C  C142  1  0.50000000  0.68374321  0.52814315  1
  C  C143  1  0.50000000  0.68409691  0.86099732  1
  H  H144  1  0.50000000  0.74026278  0.20383631  1
  H  H145  1  0.50000000  0.74215967  0.53671766  1
  H  H146  1  0.50000000  0.74240201  0.87040753  1
  H  H147  1  0.50000000  0.74021297  0.29630883  1
  H  H148  1  0.50000000  0.74239333  0.62940206  1
  H  H149  1  0.50000000  0.74220941  0.96302822  1
  H  H150  1  0.50000000  0.25543180  0.28873018  1
  H  H151  1  0.50000000  0.26049553  0.62111280  1
  H  H152  1  0.50000000  0.26026357  0.95062020  1
  H  H153  1  0.50000000  0.25818502  0.04330303  1
  H  H154  1  0.50000000  0.25646457  0.38145724  1
  H  H155  1  0.50000000  0.26054406  0.71340845  1
  H  H156  1  0.50000000  0.74174859  0.03799908  1
  H  H157  1  0.50000000  0.74057570  0.36957152  1
  H  H158  1  0.50000000  0.74239483  0.70345989  1
  H  H159  1  0.50000000  0.74067705  0.13039780  1
  H  H160  1  0.50000000  0.74158047  0.46211791  1
  H  H161  1  0.50000000  0.74243328  0.79625325  1
  H  H162  1  0.50000000  0.25654150  0.11846304  1
  H  H163  1  0.50000000  0.25809142  0.45665912  1
  H  H164  1  0.50000000  0.26056837  0.78666445  1
  H  H165  1  0.50000000  0.25547234  0.21127373  1
  H  H166  1  0.50000000  0.26018753  0.54950095  1
  H  H167  1  0.50000000  0.26055752  0.87899407  1
  H  H168  1  0.50000000  0.47097631  0.20392257  1
  H  H169  1  0.50000000  0.47092356  0.29635131  1
  H  H170  1  0.50000000  0.49059169  0.00564962  1
  H  H171  1  0.50000000  0.54883971  0.00834786  1
  H  H172  1  0.50000000  0.59050078  0.28801918  1
  H  H173  1  0.50000000  0.59255241  0.04512201  1
  H  H174  1  0.50000000  0.59088078  0.38033009  1
  H  H175  1  0.50000000  0.47398015  0.04941550  1
  H  H176  1  0.50000000  0.47091802  0.36507859  1
  H  H177  1  0.50000000  0.47094791  0.13517213  1
  H  H178  1  0.50000000  0.47375990  0.45098114  1
  H  H179  1  0.50000000  0.59098050  0.11953524  1
  H  H180  1  0.50000000  0.59240410  0.45487893  1
  H  H181  1  0.50000000  0.49073077  0.49438564  1
  H  H182  1  0.50000000  0.54876180  0.49159671  1
  H  H183  1  0.50000000  0.59056837  0.21198446  1
