# generated using pymatgen
data_H5C27
_symmetry_space_group_name_H-M   'P 1'
_cell_length_a   10.00000000
_cell_length_b   41.10890000
_cell_length_c   25.78985614
_cell_angle_alpha   90.00000000
_cell_angle_beta   90.00000000
_cell_angle_gamma   90.00000000
_symmetry_Int_Tables_number   1
_chemical_formula_structural   H5C27
_chemical_formula_sum   'H30 C162'
_cell_volume   10601.92617001
_cell_formula_units_Z   6
loop_
 _symmetry_equiv_pos_site_id
 _symmetry_equiv_pos_as_xyz
  1  'x, y, z'
loop_
 _atom_site_type_symbol
 _atom_site_label
 _atom_site_symmetry_multiplicity
 _atom_site_fract_x
 _atom_site_fract_y
 _atom_site_fract_z
 _atom_site_occupancy
  C  C0  1  0.50000000  0.28985192  0.30530303  1
  C  C1  1  0.50000000  0.28982177  0.63869692  1
  C  C2  1  0.50000000  0.28978153  0.97203814  1
  C  C3  1  0.50000000  0.35000630  0.30570068  1
  C  C4  1  0.50000000  0.34998239  0.63903599  1
  C  C5  1  0.50000000  0.34992367  0.97234959  1
  C  C6  1  0.50000000  0.41000932  0.30551628  1
  C  C7  1  0.50000000  0.40998702  0.63890395  1
  C  C8  1  0.50000000  0.40988227  0.97210426  1
  C  C9  1  0.50000000  0.47021663  0.30559810  1
  C  C10  1  0.50000000  0.47022871  0.63886758  1
  C  C11  1  0.50000000  0.46999198  0.97201435  1
  C  C12  1  0.50000000  0.52953085  0.30688447  1
  C  C13  1  0.50000000  0.53042675  0.63907517  1
  C  C14  1  0.50000000  0.52985350  0.97232610  1
  C  C15  1  0.50000000  0.59045646  0.63937425  1
  C  C16  1  0.50000000  0.59028384  0.96992811  1
  C  C17  1  0.50000000  0.65064154  0.63925344  1
  C  C18  1  0.50000000  0.64990882  0.97082333  1
  C  C19  1  0.50000000  0.71101170  0.63782749  1
  C  C20  1  0.50000000  0.70990766  0.97248669  1
  C  C21  1  0.50000000  0.28977169  0.02799707  1
  C  C22  1  0.50000000  0.28980670  0.36122925  1
  C  C23  1  0.50000000  0.28986125  0.69465906  1
  C  C24  1  0.50000000  0.34990677  0.02760597  1
  C  C25  1  0.50000000  0.34996967  0.36094567  1
  C  C26  1  0.50000000  0.35003094  0.69429961  1
  C  C27  1  0.50000000  0.40985357  0.02770054  1
  C  C28  1  0.50000000  0.40998142  0.36119045  1
  C  C29  1  0.50000000  0.41003080  0.69445109  1
  C  C30  1  0.50000000  0.46986200  0.02751039  1
  C  C31  1  0.50000000  0.47018732  0.36125958  1
  C  C32  1  0.50000000  0.47023743  0.69457266  1
  C  C33  1  0.50000000  0.52894408  0.02622530  1
  C  C34  1  0.50000000  0.52947123  0.36026284  1
  C  C35  1  0.50000000  0.53042160  0.69448631  1
  C  C36  1  0.50000000  0.59049541  0.69477963  1
  C  C37  1  0.50000000  0.65066621  0.69480814  1
  C  C38  1  0.50000000  0.71100044  0.69439332  1
  C  C39  1  0.50000000  0.26038681  0.05672176  1
  C  C40  1  0.50000000  0.26040457  0.38991260  1
  C  C41  1  0.50000000  0.26049513  0.72337502  1
  C  C42  1  0.50000000  0.31975808  0.05553727  1
  C  C43  1  0.50000000  0.31978491  0.38880729  1
  C  C44  1  0.50000000  0.31984365  0.72219550  1
  C  C45  1  0.50000000  0.37993708  0.05546800  1
  C  C46  1  0.50000000  0.38000333  0.38887338  1
  C  C47  1  0.50000000  0.38009575  0.72211862  1
  C  C48  1  0.50000000  0.43986814  0.05556882  1
  C  C49  1  0.50000000  0.43997812  0.38911235  1
  C  C50  1  0.50000000  0.44020336  0.72229070  1
  C  C51  1  0.50000000  0.49992555  0.05488071  1
  C  C52  1  0.50000000  0.50010781  0.38896300  1
  C  C53  1  0.50000000  0.50026542  0.72224458  1
  C  C54  1  0.50000000  0.56046263  0.72222471  1
  C  C55  1  0.50000000  0.62072382  0.72220823  1
  C  C56  1  0.50000000  0.68097419  0.72220716  1
  C  C57  1  0.50000000  0.74006187  0.72316928  1
  C  C58  1  0.50000000  0.26038430  0.11003272  1
  C  C59  1  0.50000000  0.26039793  0.44321648  1
  C  C60  1  0.50000000  0.26049761  0.77667166  1
  C  C61  1  0.50000000  0.31978565  0.11114816  1
  C  C62  1  0.50000000  0.31975228  0.44442708  1
  C  C63  1  0.50000000  0.31984282  0.77780068  1
  C  C64  1  0.50000000  0.38000186  0.11109916  1
  C  C65  1  0.50000000  0.37993753  0.44450449  1
  C  C66  1  0.50000000  0.38009450  0.77785674  1
  C  C67  1  0.50000000  0.43997920  0.11087653  1
  C  C68  1  0.50000000  0.43987064  0.44441544  1
  C  C69  1  0.50000000  0.44020090  0.77768998  1
  C  C70  1  0.50000000  0.50011519  0.11103260  1
  C  C71  1  0.50000000  0.49992505  0.44511430  1
  C  C72  1  0.50000000  0.50026425  0.77774921  1
  C  C73  1  0.50000000  0.56046492  0.77778136  1
  C  C74  1  0.50000000  0.62072516  0.77780357  1
  C  C75  1  0.50000000  0.68097136  0.77781110  1
  C  C76  1  0.50000000  0.74005773  0.77689513  1
  C  C77  1  0.50000000  0.28980068  0.13870069  1
  C  C78  1  0.50000000  0.28976517  0.47197649  1
  C  C79  1  0.50000000  0.28986459  0.80536864  1
  C  C80  1  0.50000000  0.34996729  0.13902152  1
  C  C81  1  0.50000000  0.34990429  0.47236235  1
  C  C82  1  0.50000000  0.35003086  0.80568390  1
  C  C83  1  0.50000000  0.40997880  0.13878597  1
  C  C84  1  0.50000000  0.40985504  0.47227514  1
  C  C85  1  0.50000000  0.41002661  0.80552861  1
  C  C86  1  0.50000000  0.47019050  0.13873336  1
  C  C87  1  0.50000000  0.46986322  0.47247997  1
  C  C88  1  0.50000000  0.47023357  0.80541302  1
  C  C89  1  0.50000000  0.52946661  0.13977447  1
  C  C90  1  0.50000000  0.52895929  0.47373784  1
  C  C91  1  0.50000000  0.53042170  0.80551094  1
  C  C92  1  0.50000000  0.59049834  0.80523434  1
  C  C93  1  0.50000000  0.65066534  0.80521187  1
  C  C94  1  0.50000000  0.71098986  0.80564551  1
  C  C95  1  0.50000000  0.28985612  0.19462381  1
  C  C96  1  0.50000000  0.28977384  0.52793779  1
  C  C97  1  0.50000000  0.28981372  0.86132840  1
  C  C98  1  0.50000000  0.35000711  0.19426408  1
  C  C99  1  0.50000000  0.34992154  0.52763208  1
  C  C100  1  0.50000000  0.34997658  0.86094521  1
  C  C101  1  0.50000000  0.41000709  0.19445967  1
  C  C102  1  0.50000000  0.40988661  0.52787537  1
  C  C103  1  0.50000000  0.40998146  0.86107556  1
  C  C104  1  0.50000000  0.47021522  0.19439954  1
  C  C105  1  0.50000000  0.46999897  0.52797348  1
  C  C106  1  0.50000000  0.47022128  0.86111270  1
  C  C107  1  0.50000000  0.52951468  0.19314584  1
  C  C108  1  0.50000000  0.52987058  0.52764562  1
  C  C109  1  0.50000000  0.53042530  0.86091622  1
  C  C110  1  0.50000000  0.59029545  0.53006457  1
  C  C111  1  0.50000000  0.59046199  0.86063761  1
  C  C112  1  0.50000000  0.64991671  0.52926289  1
  C  C113  1  0.50000000  0.65064220  0.86076887  1
  C  C114  1  0.50000000  0.70991455  0.52757814  1
  C  C115  1  0.50000000  0.71101025  0.86220816  1
  C  C116  1  0.50000000  0.26045548  0.22331066  1
  C  C117  1  0.50000000  0.26042193  0.55668355  1
  C  C118  1  0.50000000  0.26042156  0.89000208  1
  C  C119  1  0.50000000  0.31984854  0.22216505  1
  C  C120  1  0.50000000  0.31976385  0.55552588  1
  C  C121  1  0.50000000  0.31978758  0.88885147  1
  C  C122  1  0.50000000  0.38006745  0.22216226  1
  C  C123  1  0.50000000  0.37995440  0.55554107  1
  C  C124  1  0.50000000  0.38000133  0.88878882  1
  C  C125  1  0.50000000  0.44005947  0.22234666  1
  C  C126  1  0.50000000  0.43993084  0.55581976  1
  C  C127  1  0.50000000  0.44004491  0.88892387  1
  C  C128  1  0.50000000  0.50020043  0.22199359  1
  C  C129  1  0.50000000  0.49995153  0.55583223  1
  C  C130  1  0.50000000  0.50006887  0.88867555  1
  C  C131  1  0.50000000  0.56074824  0.55572829  1
  C  C132  1  0.50000000  0.56039283  0.88836153  1
  C  C133  1  0.50000000  0.62050659  0.55643560  1
  C  C134  1  0.50000000  0.62059168  0.88786392  1
  C  C135  1  0.50000000  0.68008136  0.55521424  1
  C  C136  1  0.50000000  0.68055897  0.88896296  1
  C  C137  1  0.50000000  0.73924758  0.55405747  1
  C  C138  1  0.50000000  0.73980653  0.89155681  1
  C  C139  1  0.50000000  0.26045565  0.27659586  1
  C  C140  1  0.50000000  0.26044629  0.60999815  1
  C  C141  1  0.50000000  0.26040745  0.94333794  1
  C  C142  1  0.50000000  0.31984911  0.27779008  1
  C  C143  1  0.50000000  0.31978954  0.61113957  1
  C  C144  1  0.50000000  0.31976686  0.94445926  1
  C  C145  1  0.50000000  0.38006948  0.27781202  1
  C  C146  1  0.50000000  0.38000676  0.61118706  1
  C  C147  1  0.50000000  0.37995213  0.94443653  1
  C  C148  1  0.50000000  0.44006244  0.27763676  1
  C  C149  1  0.50000000  0.44005102  0.61105638  1
  C  C150  1  0.50000000  0.43992491  0.94416463  1
  C  C151  1  0.50000000  0.50020807  0.27803456  1
  C  C152  1  0.50000000  0.50007582  0.61130194  1
  C  C153  1  0.50000000  0.49993925  0.94414527  1
  C  C154  1  0.50000000  0.56039359  0.61163128  1
  C  C155  1  0.50000000  0.56073952  0.94426181  1
  C  C156  1  0.50000000  0.62058784  0.61216453  1
  C  C157  1  0.50000000  0.62050652  0.94360362  1
  C  C158  1  0.50000000  0.68056235  0.61107824  1
  C  C159  1  0.50000000  0.68007109  0.94484786  1
  C  C160  1  0.50000000  0.73981273  0.60850058  1
  C  C161  1  0.50000000  0.73922978  0.94598400  1
  H  H162  1  0.50000000  0.23701702  0.03650370  1
  H  H163  1  0.50000000  0.23696891  0.36990362  1
  H  H164  1  0.50000000  0.23709837  0.70329213  1
  H  H165  1  0.50000000  0.76348841  0.70312637  1
  H  H166  1  0.50000000  0.23699984  0.13024344  1
  H  H167  1  0.50000000  0.23696447  0.46320864  1
  H  H168  1  0.50000000  0.23711213  0.79680303  1
  H  H169  1  0.50000000  0.76347431  0.79696671  1
  H  H170  1  0.50000000  0.23707498  0.20316908  1
  H  H171  1  0.50000000  0.23698783  0.53669986  1
  H  H172  1  0.50000000  0.23704741  0.86982164  1
  H  H173  1  0.50000000  0.76225437  0.53256546  1
  H  H174  1  0.50000000  0.76349896  0.87231039  1
  H  H175  1  0.50000000  0.23706919  0.29671008  1
  H  H176  1  0.50000000  0.23702576  0.63001214  1
  H  H177  1  0.50000000  0.23703918  0.96354108  1
  H  H178  1  0.50000000  0.76345060  0.62794119  1
  H  H179  1  0.50000000  0.76224843  0.96744271  1
  H  H180  1  0.50000000  0.55293906  0.28683326  1
  H  H181  1  0.50000000  0.59119065  0.01228370  1
  H  H182  1  0.50000000  0.64941736  0.01336948  1
  H  H183  1  0.50000000  0.70932927  0.01497919  1
  H  H184  1  0.50000000  0.55192085  0.04718030  1
  H  H185  1  0.50000000  0.55287839  0.38036631  1
  H  H186  1  0.50000000  0.55292294  0.11983276  1
  H  H187  1  0.50000000  0.55189745  0.45263389  1
  H  H188  1  0.50000000  0.55293712  0.21314529  1
  H  H189  1  0.50000000  0.59119808  0.48769267  1
  H  H190  1  0.50000000  0.64941169  0.48675066  1
  H  H191  1  0.50000000  0.70931607  0.48510025  1
