# generated using pymatgen
data_H14C75
_symmetry_space_group_name_H-M   'P 1'
_cell_length_a   20.00000000
_cell_length_b   40.19450000
_cell_length_c   25.78346884
_cell_angle_alpha   90.00000000
_cell_angle_beta   90.00000000
_cell_angle_gamma   90.00000000
_symmetry_Int_Tables_number   1
_chemical_formula_structural   H14C75
_chemical_formula_sum   'H28 C150'
_cell_volume   20727.07276832
_cell_formula_units_Z   2
loop_
 _symmetry_equiv_pos_site_id
 _symmetry_equiv_pos_as_xyz
  1  'x, y, z'
loop_
 _atom_site_type_symbol
 _atom_site_label
 _atom_site_symmetry_multiplicity
 _atom_site_fract_x
 _atom_site_fract_y
 _atom_site_fract_z
 _atom_site_occupancy
  C  C0  1  0.50000000  0.28564376  0.10988483  1
  C  C1  1  0.50000000  0.28557191  0.60996808  1
  C  C2  1  0.50000000  0.28561094  0.27652522  1
  C  C3  1  0.50000000  0.28567311  0.77676132  1
  C  C4  1  0.50000000  0.28552773  0.44327764  1
  C  C5  1  0.50000000  0.28564603  0.94344792  1
  C  C6  1  0.50000000  0.31567608  0.13863897  1
  C  C7  1  0.50000000  0.31561254  0.63872301  1
  C  C8  1  0.50000000  0.31561782  0.30533076  1
  C  C9  1  0.50000000  0.31572199  0.80544634  1
  C  C10  1  0.50000000  0.31555259  0.47205804  1
  C  C11  1  0.50000000  0.31568717  0.97209184  1
  C  C12  1  0.50000000  0.28563696  0.05657838  1
  C  C13  1  0.50000000  0.28556846  0.55665168  1
  C  C14  1  0.50000000  0.28563959  0.22324658  1
  C  C15  1  0.50000000  0.28564483  0.72345585  1
  C  C16  1  0.50000000  0.28553827  0.38997175  1
  C  C17  1  0.50000000  0.28567157  0.89013085  1
  C  C18  1  0.50000000  0.34632936  0.11113043  1
  C  C19  1  0.50000000  0.34625500  0.61117971  1
  C  C20  1  0.50000000  0.34627362  0.27778360  1
  C  C21  1  0.50000000  0.34635246  0.77783660  1
  C  C22  1  0.50000000  0.34619356  0.44445240  1
  C  C23  1  0.50000000  0.34632253  0.94447364  1
  C  C24  1  0.50000000  0.37715943  0.13904795  1
  C  C25  1  0.50000000  0.37711231  0.63908598  1
  C  C26  1  0.50000000  0.37710662  0.30569091  1
  C  C27  1  0.50000000  0.37721148  0.80570065  1
  C  C28  1  0.50000000  0.37702367  0.47239056  1
  C  C29  1  0.50000000  0.37714117  0.97235919  1
  C  C30  1  0.50000000  0.31568495  0.02793174  1
  C  C31  1  0.50000000  0.31559501  0.52797339  1
  C  C32  1  0.50000000  0.31567740  0.19454222  1
  C  C33  1  0.50000000  0.31566400  0.69467365  1
  C  C34  1  0.50000000  0.31557432  0.36123940  1
  C  C35  1  0.50000000  0.31571034  0.86138594  1
  C  C36  1  0.50000000  0.34631372  0.05552010  1
  C  C37  1  0.50000000  0.34623586  0.55556982  1
  C  C38  1  0.50000000  0.34629967  0.22215232  1
  C  C39  1  0.50000000  0.34632471  0.72221911  1
  C  C40  1  0.50000000  0.34621345  0.38881296  1
  C  C41  1  0.50000000  0.34635881  0.88887035  1
  C  C42  1  0.50000000  0.40788313  0.11111150  1
  C  C43  1  0.50000000  0.40782513  0.61123966  1
  C  C44  1  0.50000000  0.40788068  0.27782270  1
  C  C45  1  0.50000000  0.40793281  0.77781886  1
  C  C46  1  0.50000000  0.40774135  0.44450984  1
  C  C47  1  0.50000000  0.40784314  0.94441579  1
  C  C48  1  0.50000000  0.43854974  0.13876575  1
  C  C49  1  0.50000000  0.43848369  0.63896252  1
  C  C50  1  0.50000000  0.43851502  0.30550749  1
  C  C51  1  0.50000000  0.43855647  0.80545739  1
  C  C52  1  0.50000000  0.43833907  0.47231960  1
  C  C53  1  0.50000000  0.43846129  0.97206314  1
  C  C54  1  0.50000000  0.37713170  0.02760558  1
  C  C55  1  0.50000000  0.37704867  0.52765079  1
  C  C56  1  0.50000000  0.37714945  0.19428078  1
  C  C57  1  0.50000000  0.37716798  0.69431580  1
  C  C58  1  0.50000000  0.37706416  0.36092452  1
  C  C59  1  0.50000000  0.37719457  0.86093177  1
  C  C60  1  0.50000000  0.40783879  0.05548208  1
  C  C61  1  0.50000000  0.40775928  0.55560628  1
  C  C62  1  0.50000000  0.40790160  0.22217162  1
  C  C63  1  0.50000000  0.40791430  0.72215562  1
  C  C64  1  0.50000000  0.40779196  0.38885976  1
  C  C65  1  0.50000000  0.40789893  0.88877749  1
  C  C66  1  0.50000000  0.46924774  0.11084555  1
  C  C67  1  0.50000000  0.46924535  0.61114402  1
  C  C68  1  0.50000000  0.46927129  0.27762391  1
  C  C69  1  0.50000000  0.46938861  0.77762469  1
  C  C70  1  0.50000000  0.46904217  0.44446368  1
  C  C71  1  0.50000000  0.46917213  0.94405833  1
  C  C72  1  0.50000000  0.50015278  0.13869844  1
  C  C73  1  0.50000000  0.50013162  0.63896584  1
  C  C74  1  0.50000000  0.50010774  0.30561852  1
  C  C75  1  0.50000000  0.50016889  0.80535562  1
  C  C76  1  0.50000000  0.49972083  0.47254863  1
  C  C77  1  0.50000000  0.49993902  0.97191839  1
  C  C78  1  0.50000000  0.43843886  0.02769117  1
  C  C79  1  0.50000000  0.43837901  0.52795077  1
  C  C80  1  0.50000000  0.43854381  0.19445454  1
  C  C81  1  0.50000000  0.43853796  0.69451280  1
  C  C82  1  0.50000000  0.43846833  0.36120012  1
  C  C83  1  0.50000000  0.43852665  0.86100997  1
  C  C84  1  0.50000000  0.46915640  0.05553698  1
  C  C85  1  0.50000000  0.46911389  0.55591259  1
  C  C86  1  0.50000000  0.46929622  0.22232369  1
  C  C87  1  0.50000000  0.46938271  0.72233361  1
  C  C88  1  0.50000000  0.46914115  0.38915987  1
  C  C89  1  0.50000000  0.46927224  0.88883125  1
  C  C90  1  0.50000000  0.53076035  0.11099448  1
  C  C91  1  0.50000000  0.53068340  0.61137646  1
  C  C92  1  0.50000000  0.53078278  0.27806132  1
  C  C93  1  0.50000000  0.53085591  0.77773478  1
  C  C94  1  0.50000000  0.53045590  0.44517248  1
  C  C95  1  0.50000000  0.53055598  0.94406486  1
  C  C96  1  0.50000000  0.56077501  0.13982108  1
  C  C97  1  0.50000000  0.56170951  0.63906296  1
  C  C98  1  0.50000000  0.56076064  0.30693408  1
  C  C99  1  0.50000000  0.56169663  0.80557055  1
  C  C100  1  0.50000000  0.56017738  0.47372379  1
  C  C101  1  0.50000000  0.56114531  0.97225496  1
  C  C102  1  0.50000000  0.49982571  0.02741718  1
  C  C103  1  0.50000000  0.49988160  0.52804120  1
  C  C104  1  0.50000000  0.50015463  0.19437731  1
  C  C105  1  0.50000000  0.50016692  0.69460273  1
  C  C106  1  0.50000000  0.50004151  0.36130184  1
  C  C107  1  0.50000000  0.50013551  0.86100155  1
  C  C108  1  0.50000000  0.53058046  0.05480428  1
  C  C109  1  0.50000000  0.53053801  0.55585793  1
  C  C110  1  0.50000000  0.53079539  0.22200257  1
  C  C111  1  0.50000000  0.53086365  0.72217924  1
  C  C112  1  0.50000000  0.53062951  0.38901193  1
  C  C113  1  0.50000000  0.53067465  0.88855508  1
  C  C114  1  0.50000000  0.59251182  0.61145127  1
  C  C115  1  0.50000000  0.59253841  0.77780385  1
  C  C116  1  0.50000000  0.59273237  0.94422652  1
  C  C117  1  0.50000000  0.62319934  0.63909680  1
  C  C118  1  0.50000000  0.62312365  0.80523347  1
  C  C119  1  0.50000000  0.62296274  0.97003914  1
  C  C120  1  0.50000000  0.56026476  0.02616836  1
  C  C121  1  0.50000000  0.56115077  0.52764274  1
  C  C122  1  0.50000000  0.56079491  0.19319194  1
  C  C123  1  0.50000000  0.56171413  0.69431433  1
  C  C124  1  0.50000000  0.56065627  0.36030628  1
  C  C125  1  0.50000000  0.56167020  0.86081362  1
  C  C126  1  0.50000000  0.59278166  0.55561267  1
  C  C127  1  0.50000000  0.59255309  0.72206565  1
  C  C128  1  0.50000000  0.59245799  0.88841347  1
  C  C129  1  0.50000000  0.65408032  0.61160519  1
  C  C130  1  0.50000000  0.65416005  0.77769992  1
  C  C131  1  0.50000000  0.65377992  0.94376490  1
  C  C132  1  0.50000000  0.68511313  0.63843024  1
  C  C133  1  0.50000000  0.68490087  0.80525497  1
  C  C134  1  0.50000000  0.68412474  0.97150287  1
  C  C135  1  0.50000000  0.62304154  0.52980085  1
  C  C136  1  0.50000000  0.62314729  0.69463213  1
  C  C137  1  0.50000000  0.62313504  0.86077740  1
  C  C138  1  0.50000000  0.65389112  0.55613395  1
  C  C139  1  0.50000000  0.65418538  0.72215747  1
  C  C140  1  0.50000000  0.65399626  0.88829237  1
  C  C141  1  0.50000000  0.71474152  0.60944214  1
  C  C142  1  0.50000000  0.71474164  0.77681370  1
  C  C143  1  0.50000000  0.71416783  0.94498124  1
  C  C144  1  0.50000000  0.68432492  0.52861740  1
  C  C145  1  0.50000000  0.68495093  0.69470891  1
  C  C146  1  0.50000000  0.68502874  0.86156613  1
  C  C147  1  0.50000000  0.71437838  0.55513087  1
  C  C148  1  0.50000000  0.71474679  0.72325403  1
  C  C149  1  0.50000000  0.71457562  0.89066836  1
  H  H150  1  0.50000000  0.26174146  0.13002572  1
  H  H151  1  0.50000000  0.26160333  0.62992994  1
  H  H152  1  0.50000000  0.26166404  0.29649444  1
  H  H153  1  0.50000000  0.26175066  0.79687269  1
  H  H154  1  0.50000000  0.26157675  0.46324818  1
  H  H155  1  0.50000000  0.26171901  0.96354688  1
  H  H156  1  0.50000000  0.26171378  0.03647712  1
  H  H157  1  0.50000000  0.26159287  0.53670505  1
  H  H158  1  0.50000000  0.26174097  0.20311761  1
  H  H159  1  0.50000000  0.26167692  0.70349780  1
  H  H160  1  0.50000000  0.26158593  0.37002413  1
  H  H161  1  0.50000000  0.26176091  0.87000420  1
  H  H162  1  0.50000000  0.73880029  0.62922153  1
  H  H163  1  0.50000000  0.73862926  0.79699973  1
  H  H164  1  0.50000000  0.73780063  0.96614500  1
  H  H165  1  0.50000000  0.73792690  0.53366553  1
  H  H166  1  0.50000000  0.73866181  0.70311389  1
  H  H167  1  0.50000000  0.73867079  0.87105510  1
  H  H168  1  0.50000000  0.68374913  0.48615332  1
  H  H169  1  0.50000000  0.68337684  0.01400341  1
  H  H170  1  0.50000000  0.62414175  0.48740831  1
  H  H171  1  0.50000000  0.58487272  0.12010399  1
  H  H172  1  0.50000000  0.58478885  0.28710885  1
  H  H173  1  0.50000000  0.58357312  0.45243895  1
  H  H174  1  0.50000000  0.62406324  0.01239624  1
  H  H175  1  0.50000000  0.58379532  0.04706963  1
  H  H176  1  0.50000000  0.58474808  0.21323424  1
  H  H177  1  0.50000000  0.58465011  0.38027682  1
