# generated using pymatgen
data_H7C36
_symmetry_space_group_name_H-M   'P 1'
_cell_length_a   20.00000000
_cell_length_b   37.22700000
_cell_length_c   25.90606201
_cell_angle_alpha   90.00000000
_cell_angle_beta   90.00000000
_cell_angle_gamma   90.00000000
_symmetry_Int_Tables_number   1
_chemical_formula_structural   H7C36
_chemical_formula_sum   'H28 C144'
_cell_volume   19288.09940929
_cell_formula_units_Z   4
loop_
 _symmetry_equiv_pos_site_id
 _symmetry_equiv_pos_as_xyz
  1  'x, y, z'
loop_
 _atom_site_type_symbol
 _atom_site_label
 _atom_site_symmetry_multiplicity
 _atom_site_fract_x
 _atom_site_fract_y
 _atom_site_fract_z
 _atom_site_occupancy
  C  C0  1  0.50000000  0.31410973  0.55931986  1
  C  C1  1  0.50000000  0.31523769  0.88516333  1
  C  C2  1  0.50000000  0.38748679  0.22363215  1
  C  C3  1  0.50000000  0.38184363  0.55606232  1
  C  C4  1  0.50000000  0.38274769  0.88794565  1
  C  C5  1  0.50000000  0.45328089  0.22252584  1
  C  C6  1  0.50000000  0.44890533  0.55461716  1
  C  C7  1  0.50000000  0.44916525  0.88939964  1
  C  C8  1  0.50000000  0.51901588  0.22225301  1
  C  C9  1  0.50000000  0.51594205  0.55566227  1
  C  C10  1  0.50000000  0.51568494  0.88901164  1
  C  C11  1  0.50000000  0.58480338  0.22232809  1
  C  C12  1  0.50000000  0.58230763  0.55607246  1
  C  C13  1  0.50000000  0.58207976  0.88860114  1
  C  C14  1  0.50000000  0.65099299  0.22185869  1
  C  C15  1  0.50000000  0.64853773  0.55664289  1
  C  C16  1  0.50000000  0.64853939  0.88811540  1
  C  C17  1  0.50000000  0.71453053  0.55748555  1
  C  C18  1  0.50000000  0.71440696  0.88964183  1
  C  C19  1  0.50000000  0.31521775  0.61479250  1
  C  C20  1  0.50000000  0.31412696  0.94063563  1
  C  C21  1  0.50000000  0.38750104  0.27629964  1
  C  C22  1  0.50000000  0.38273273  0.61200160  1
  C  C23  1  0.50000000  0.38185496  0.94389094  1
  C  C24  1  0.50000000  0.45328556  0.27748186  1
  C  C25  1  0.50000000  0.44916028  0.61058002  1
  C  C26  1  0.50000000  0.44892315  0.94537306  1
  C  C27  1  0.50000000  0.51901306  0.27776618  1
  C  C28  1  0.50000000  0.51568139  0.61100170  1
  C  C29  1  0.50000000  0.51594886  0.94435676  1
  C  C30  1  0.50000000  0.58480562  0.27768786  1
  C  C31  1  0.50000000  0.58206763  0.61143102  1
  C  C32  1  0.50000000  0.58231222  0.94396164  1
  C  C33  1  0.50000000  0.65098682  0.27817607  1
  C  C34  1  0.50000000  0.64852542  0.61193120  1
  C  C35  1  0.50000000  0.64853960  0.94339909  1
  C  C36  1  0.50000000  0.71440109  0.61042124  1
  C  C37  1  0.50000000  0.71453299  0.94258022  1
  C  C38  1  0.50000000  0.28313595  0.64265086  1
  C  C39  1  0.50000000  0.28332936  0.97014847  1
  C  C40  1  0.50000000  0.34926097  0.63998921  1
  C  C41  1  0.50000000  0.34787216  0.96573495  1
  C  C42  1  0.50000000  0.42025071  0.30411306  1
  C  C43  1  0.50000000  0.41579938  0.63884613  1
  C  C44  1  0.50000000  0.41574926  0.97340123  1
  C  C45  1  0.50000000  0.48601945  0.30577995  1
  C  C46  1  0.50000000  0.48211540  0.63844797  1
  C  C47  1  0.50000000  0.48282673  0.97253621  1
  C  C48  1  0.50000000  0.55181579  0.30568960  1
  C  C49  1  0.50000000  0.54873850  0.63899995  1
  C  C50  1  0.50000000  0.54942461  0.97189373  1
  C  C51  1  0.50000000  0.61791105  0.30585004  1
  C  C52  1  0.50000000  0.61514627  0.63953806  1
  C  C53  1  0.50000000  0.61576547  0.97162484  1
  C  C54  1  0.50000000  0.68308733  0.30741645  1
  C  C55  1  0.50000000  0.68170954  0.63918566  1
  C  C56  1  0.50000000  0.68179804  0.97100871  1
  C  C57  1  0.50000000  0.28368060  0.69554761  1
  C  C58  1  0.50000000  0.34966592  0.69502736  1
  C  C59  1  0.50000000  0.41729743  0.02920333  1
  C  C60  1  0.50000000  0.42032331  0.35888833  1
  C  C61  1  0.50000000  0.41605440  0.69451540  1
  C  C62  1  0.50000000  0.48391807  0.02780195  1
  C  C63  1  0.50000000  0.48563601  0.36091582  1
  C  C64  1  0.50000000  0.48230232  0.69428466  1
  C  C65  1  0.50000000  0.55022319  0.02746143  1
  C  C66  1  0.50000000  0.55150306  0.36146284  1
  C  C67  1  0.50000000  0.54866902  0.69452090  1
  C  C68  1  0.50000000  0.61649229  0.02687987  1
  C  C69  1  0.50000000  0.61766798  0.36157767  1
  C  C70  1  0.50000000  0.61502428  0.69461702  1
  C  C71  1  0.50000000  0.68180752  0.02526057  1
  C  C72  1  0.50000000  0.68283748  0.36082403  1
  C  C73  1  0.50000000  0.68154816  0.69472482  1
  C  C74  1  0.50000000  0.31651104  0.72229667  1
  C  C75  1  0.50000000  0.38668786  0.06216066  1
  C  C76  1  0.50000000  0.38774233  0.38551494  1
  C  C77  1  0.50000000  0.38309877  0.72236972  1
  C  C78  1  0.50000000  0.45112849  0.05603622  1
  C  C79  1  0.50000000  0.45234403  0.38827900  1
  C  C80  1  0.50000000  0.44923202  0.72217876  1
  C  C81  1  0.50000000  0.51744074  0.05545261  1
  C  C82  1  0.50000000  0.51833793  0.38917638  1
  C  C83  1  0.50000000  0.51533860  0.72221261  1
  C  C84  1  0.50000000  0.58357882  0.05513072  1
  C  C85  1  0.50000000  0.58423246  0.38950015  1
  C  C86  1  0.50000000  0.58170696  0.72223649  1
  C  C87  1  0.50000000  0.65011445  0.05411130  1
  C  C88  1  0.50000000  0.65050907  0.38950345  1
  C  C89  1  0.50000000  0.64837038  0.72227675  1
  C  C90  1  0.50000000  0.71401857  0.72352806  1
  C  C91  1  0.50000000  0.31652067  0.77763786  1
  C  C92  1  0.50000000  0.38776567  0.11446700  1
  C  C93  1  0.50000000  0.38666611  0.43782342  1
  C  C94  1  0.50000000  0.38310413  0.77756667  1
  C  C95  1  0.50000000  0.45236846  0.11171463  1
  C  C96  1  0.50000000  0.45109718  0.44395499  1
  C  C97  1  0.50000000  0.44923894  0.77776885  1
  C  C98  1  0.50000000  0.51834350  0.11082073  1
  C  C99  1  0.50000000  0.51742750  0.44454679  1
  C  C100  1  0.50000000  0.51534035  0.77779204  1
  C  C101  1  0.50000000  0.58424351  0.11051902  1
  C  C102  1  0.50000000  0.58356862  0.44490002  1
  C  C103  1  0.50000000  0.58171694  0.77778972  1
  C  C104  1  0.50000000  0.65052348  0.11052280  1
  C  C105  1  0.50000000  0.65011049  0.44592803  1
  C  C106  1  0.50000000  0.64837896  0.77775225  1
  C  C107  1  0.50000000  0.71403049  0.77650669  1
  C  C108  1  0.50000000  0.28369823  0.80440204  1
  C  C109  1  0.50000000  0.34967452  0.80491986  1
  C  C110  1  0.50000000  0.42034488  0.14109356  1
  C  C111  1  0.50000000  0.41727119  0.47078670  1
  C  C112  1  0.50000000  0.41605505  0.80542952  1
  C  C113  1  0.50000000  0.48564640  0.13910132  1
  C  C114  1  0.50000000  0.48390066  0.47218560  1
  C  C115  1  0.50000000  0.48230473  0.80570860  1
  C  C116  1  0.50000000  0.55150690  0.13853563  1
  C  C117  1  0.50000000  0.55020893  0.47255512  1
  C  C118  1  0.50000000  0.54868265  0.80548327  1
  C  C119  1  0.50000000  0.61768087  0.13845106  1
  C  C120  1  0.50000000  0.61648679  0.47315916  1
  C  C121  1  0.50000000  0.61503466  0.80541821  1
  C  C122  1  0.50000000  0.68284036  0.13923270  1
  C  C123  1  0.50000000  0.68180916  0.47478517  1
  C  C124  1  0.50000000  0.68156269  0.80531925  1
  C  C125  1  0.50000000  0.28333104  0.52976018  1
  C  C126  1  0.50000000  0.28316156  0.85729087  1
  C  C127  1  0.50000000  0.34787001  0.53421246  1
  C  C128  1  0.50000000  0.34927622  0.85995279  1
  C  C129  1  0.50000000  0.42025402  0.19586712  1
  C  C130  1  0.50000000  0.41573599  0.52658341  1
  C  C131  1  0.50000000  0.41580247  0.86111840  1
  C  C132  1  0.50000000  0.48601986  0.19424268  1
  C  C133  1  0.50000000  0.48281203  0.52745681  1
  C  C134  1  0.50000000  0.48211641  0.86154384  1
  C  C135  1  0.50000000  0.55181424  0.19431481  1
  C  C136  1  0.50000000  0.54941530  0.52813415  1
  C  C137  1  0.50000000  0.54875588  0.86101256  1
  C  C138  1  0.50000000  0.61791771  0.19418205  1
  C  C139  1  0.50000000  0.61576103  0.52841268  1
  C  C140  1  0.50000000  0.61516298  0.86049706  1
  C  C141  1  0.50000000  0.68310067  0.19263566  1
  C  C142  1  0.50000000  0.68180248  0.52904283  1
  C  C143  1  0.50000000  0.68172223  0.86086031  1
  H  H144  1  0.50000000  0.73994042  0.53613108  1
  H  H145  1  0.50000000  0.74011525  0.86935176  1
  H  H146  1  0.50000000  0.74012701  0.63067227  1
  H  H147  1  0.50000000  0.73993487  0.96395864  1
  H  H148  1  0.50000000  0.25742778  0.62226075  1
  H  H149  1  0.50000000  0.25626192  0.95382538  1
  H  H150  1  0.50000000  0.25816178  0.71617069  1
  H  H151  1  0.50000000  0.73983514  0.70348949  1
  H  H152  1  0.50000000  0.73986554  0.79650908  1
  H  H153  1  0.50000000  0.25815871  0.78384271  1
  H  H154  1  0.50000000  0.25625529  0.54602825  1
  H  H155  1  0.50000000  0.25744850  0.87765379  1
  H  H156  1  0.50000000  0.36181881  0.20348666  1
  H  H157  1  0.50000000  0.36183474  0.29650372  1
  H  H158  1  0.50000000  0.28528528  0.01234439  1
  H  H159  1  0.50000000  0.34360777  0.00620668  1
  H  H160  1  0.50000000  0.70911550  0.28789607  1
  H  H161  1  0.50000000  0.70792003  0.04460290  1
  H  H162  1  0.50000000  0.70871661  0.38076160  1
  H  H163  1  0.50000000  0.35949350  0.04936428  1
  H  H164  1  0.50000000  0.36209303  0.36528155  1
  H  H165  1  0.50000000  0.36212935  0.13472635  1
  H  H166  1  0.50000000  0.35947027  0.45060619  1
  H  H167  1  0.50000000  0.70869756  0.11927494  1
  H  H168  1  0.50000000  0.70792236  0.45544389  1
  H  H169  1  0.50000000  0.28534127  0.48757331  1
  H  H170  1  0.50000000  0.34357648  0.49372614  1
  H  H171  1  0.50000000  0.70912278  0.21216278  1
