# generated using pymatgen
data_H5C27
_symmetry_space_group_name_H-M   'P 1'
_cell_length_a   10.00000000
_cell_length_b   41.10890000
_cell_length_c   25.88110171
_cell_angle_alpha   90.00000000
_cell_angle_beta   90.00000000
_cell_angle_gamma   90.00000000
_symmetry_Int_Tables_number   1
_chemical_formula_structural   H5C27
_chemical_formula_sum   'H30 C162'
_cell_volume   10639.43622052
_cell_formula_units_Z   6
loop_
 _symmetry_equiv_pos_site_id
 _symmetry_equiv_pos_as_xyz
  1  'x, y, z'
loop_
 _atom_site_type_symbol
 _atom_site_label
 _atom_site_symmetry_multiplicity
 _atom_site_fract_x
 _atom_site_fract_y
 _atom_site_fract_z
 _atom_site_occupancy
  C  C0  1  0.50000000  0.28907126  0.63870400  1
  C  C1  1  0.50000000  0.29005270  0.97087960  1
  C  C2  1  0.50000000  0.34965206  0.63957919  1
  C  C3  1  0.50000000  0.34986412  0.96924887  1
  C  C4  1  0.50000000  0.40973269  0.30734740  1
  C  C5  1  0.50000000  0.40986819  0.63947712  1
  C  C6  1  0.50000000  0.41028524  0.97163134  1
  C  C7  1  0.50000000  0.46881945  0.30581117  1
  C  C8  1  0.50000000  0.47008902  0.63913629  1
  C  C9  1  0.50000000  0.47008841  0.97165554  1
  C  C10  1  0.50000000  0.52872323  0.30569591  1
  C  C11  1  0.50000000  0.53046119  0.63880915  1
  C  C12  1  0.50000000  0.53031622  0.97198176  1
  C  C13  1  0.50000000  0.58833768  0.30574511  1
  C  C14  1  0.50000000  0.59072295  0.63854546  1
  C  C15  1  0.50000000  0.59070531  0.97263957  1
  C  C16  1  0.50000000  0.64800658  0.30423668  1
  C  C17  1  0.50000000  0.65060600  0.63881930  1
  C  C18  1  0.50000000  0.65159622  0.97316344  1
  C  C19  1  0.50000000  0.71079815  0.64042942  1
  C  C20  1  0.50000000  0.71412710  0.96497503  1
  C  C21  1  0.50000000  0.28916586  0.69489143  1
  C  C22  1  0.50000000  0.34966749  0.69494826  1
  C  C23  1  0.50000000  0.41095768  0.02549615  1
  C  C24  1  0.50000000  0.40994638  0.36071732  1
  C  C25  1  0.50000000  0.40986817  0.69460192  1
  C  C26  1  0.50000000  0.46990431  0.02703959  1
  C  C27  1  0.50000000  0.46903077  0.36150956  1
  C  C28  1  0.50000000  0.47010578  0.69462560  1
  C  C29  1  0.50000000  0.52986874  0.02755486  1
  C  C30  1  0.50000000  0.52897442  0.36139365  1
  C  C31  1  0.50000000  0.53042297  0.69448633  1
  C  C32  1  0.50000000  0.58987866  0.02784552  1
  C  C33  1  0.50000000  0.58863095  0.36088248  1
  C  C34  1  0.50000000  0.59049722  0.69411987  1
  C  C35  1  0.50000000  0.65018734  0.02910298  1
  C  C36  1  0.50000000  0.64792227  0.35922074  1
  C  C37  1  0.50000000  0.65017110  0.69420159  1
  C  C38  1  0.50000000  0.71007011  0.69584293  1
  C  C39  1  0.50000000  0.25998573  0.72332888  1
  C  C40  1  0.50000000  0.31927197  0.72234072  1
  C  C41  1  0.50000000  0.37963808  0.72224164  1
  C  C42  1  0.50000000  0.43976859  0.05437130  1
  C  C43  1  0.50000000  0.43927073  0.38946193  1
  C  C44  1  0.50000000  0.44008391  0.72224506  1
  C  C45  1  0.50000000  0.49975183  0.05525094  1
  C  C46  1  0.50000000  0.49924130  0.38945901  1
  C  C47  1  0.50000000  0.50030709  0.72227902  1
  C  C48  1  0.50000000  0.55958386  0.05550296  1
  C  C49  1  0.50000000  0.55893788  0.38903683  1
  C  C50  1  0.50000000  0.56037830  0.72216592  1
  C  C51  1  0.50000000  0.61969101  0.05598736  1
  C  C52  1  0.50000000  0.61878112  0.38833123  1
  C  C53  1  0.50000000  0.62036362  0.72203531  1
  C  C54  1  0.50000000  0.67807334  0.06141138  1
  C  C55  1  0.50000000  0.67737942  0.38604028  1
  C  C56  1  0.50000000  0.68010467  0.72244778  1
  C  C57  1  0.50000000  0.73942153  0.72367526  1
  C  C58  1  0.50000000  0.25998007  0.77673179  1
  C  C59  1  0.50000000  0.31927037  0.77768547  1
  C  C60  1  0.50000000  0.37963647  0.77777615  1
  C  C61  1  0.50000000  0.43926047  0.11057949  1
  C  C62  1  0.50000000  0.43978040  0.44565946  1
  C  C63  1  0.50000000  0.44008452  0.77776048  1
  C  C64  1  0.50000000  0.49924090  0.11054325  1
  C  C65  1  0.50000000  0.49975365  0.44474768  1
  C  C66  1  0.50000000  0.50028881  0.77766806  1
  C  C67  1  0.50000000  0.55894234  0.11094420  1
  C  C68  1  0.50000000  0.55958689  0.44447812  1
  C  C69  1  0.50000000  0.56035752  0.77784480  1
  C  C70  1  0.50000000  0.61877503  0.11163847  1
  C  C71  1  0.50000000  0.61970461  0.44398955  1
  C  C72  1  0.50000000  0.62033551  0.77790464  1
  C  C73  1  0.50000000  0.67737672  0.11386532  1
  C  C74  1  0.50000000  0.67809005  0.43849434  1
  C  C75  1  0.50000000  0.68008864  0.77752927  1
  C  C76  1  0.50000000  0.73941360  0.77639385  1
  C  C77  1  0.50000000  0.28916591  0.80514665  1
  C  C78  1  0.50000000  0.34966829  0.80507382  1
  C  C79  1  0.50000000  0.40995185  0.13939597  1
  C  C80  1  0.50000000  0.41095840  0.47450685  1
  C  C81  1  0.50000000  0.40986834  0.80539794  1
  C  C82  1  0.50000000  0.46903008  0.13851297  1
  C  C83  1  0.50000000  0.46991608  0.47298353  1
  C  C84  1  0.50000000  0.47009748  0.80536565  1
  C  C85  1  0.50000000  0.52897780  0.13859010  1
  C  C86  1  0.50000000  0.52987601  0.47243788  1
  C  C87  1  0.50000000  0.53039968  0.80551659  1
  C  C88  1  0.50000000  0.58863293  0.13910203  1
  C  C89  1  0.50000000  0.58988363  0.47213951  1
  C  C90  1  0.50000000  0.59047344  0.80590690  1
  C  C91  1  0.50000000  0.64792292  0.14072135  1
  C  C92  1  0.50000000  0.65021256  0.47086662  1
  C  C93  1  0.50000000  0.65014899  0.80576144  1
  C  C94  1  0.50000000  0.71004875  0.80414904  1
  C  C95  1  0.50000000  0.29003416  0.52921970  1
  C  C96  1  0.50000000  0.28907292  0.86132299  1
  C  C97  1  0.50000000  0.34984735  0.53067236  1
  C  C98  1  0.50000000  0.34965162  0.86043683  1
  C  C99  1  0.50000000  0.40974849  0.19275987  1
  C  C100  1  0.50000000  0.41027551  0.52836903  1
  C  C101  1  0.50000000  0.40987728  0.86051628  1
  C  C102  1  0.50000000  0.46881923  0.19421625  1
  C  C103  1  0.50000000  0.47009597  0.52836766  1
  C  C104  1  0.50000000  0.47008982  0.86085870  1
  C  C105  1  0.50000000  0.52872642  0.19428223  1
  C  C106  1  0.50000000  0.53032524  0.52801689  1
  C  C107  1  0.50000000  0.53045785  0.86121633  1
  C  C108  1  0.50000000  0.58833936  0.19423338  1
  C  C109  1  0.50000000  0.59071169  0.52734737  1
  C  C110  1  0.50000000  0.59071853  0.86146494  1
  C  C111  1  0.50000000  0.64799659  0.19570519  1
  C  C112  1  0.50000000  0.65161022  0.52681276  1
  C  C113  1  0.50000000  0.65059429  0.86114204  1
  C  C114  1  0.50000000  0.71415432  0.53496158  1
  C  C115  1  0.50000000  0.71078997  0.85954980  1
  C  C116  1  0.50000000  0.26061293  0.55547922  1
  C  C117  1  0.50000000  0.26018485  0.89042356  1
  C  C118  1  0.50000000  0.31971737  0.55685431  1
  C  C119  1  0.50000000  0.31946941  0.88789207  1
  C  C120  1  0.50000000  0.37942945  0.55640893  1
  C  C121  1  0.50000000  0.37969684  0.88794368  1
  C  C122  1  0.50000000  0.43887533  0.22191839  1
  C  C123  1  0.50000000  0.44021251  0.55632595  1
  C  C124  1  0.50000000  0.44015202  0.88822424  1
  C  C125  1  0.50000000  0.49881217  0.22231334  1
  C  C126  1  0.50000000  0.50034199  0.55602520  1
  C  C127  1  0.50000000  0.50029907  0.88876558  1
  C  C128  1  0.50000000  0.55844464  0.22220486  1
  C  C129  1  0.50000000  0.56053361  0.55542779  1
  C  C130  1  0.50000000  0.56043361  0.88905876  1
  C  C131  1  0.50000000  0.61809579  0.22246384  1
  C  C132  1  0.50000000  0.62143204  0.55459061  1
  C  C133  1  0.50000000  0.62084525  0.88934412  1
  C  C134  1  0.50000000  0.67760283  0.22355363  1
  C  C135  1  0.50000000  0.68233803  0.55612039  1
  C  C136  1  0.50000000  0.68108838  0.88835951  1
  C  C137  1  0.50000000  0.74272869  0.56325279  1
  C  C138  1  0.50000000  0.74125396  0.88378055  1
  C  C139  1  0.50000000  0.26016103  0.60963990  1
  C  C140  1  0.50000000  0.26065060  0.94456905  1
  C  C141  1  0.50000000  0.31947296  0.61213150  1
  C  C142  1  0.50000000  0.31971487  0.94316501  1
  C  C143  1  0.50000000  0.37968799  0.61203898  1
  C  C144  1  0.50000000  0.37944872  0.94356186  1
  C  C145  1  0.50000000  0.43886221  0.27812440  1
  C  C146  1  0.50000000  0.44015284  0.61177519  1
  C  C147  1  0.50000000  0.44021483  0.94367029  1
  C  C148  1  0.50000000  0.49880828  0.27768822  1
  C  C149  1  0.50000000  0.50030924  0.61125115  1
  C  C150  1  0.50000000  0.50032769  0.94397419  1
  C  C151  1  0.50000000  0.55844330  0.27777273  1
  C  C152  1  0.50000000  0.56043332  0.61094603  1
  C  C153  1  0.50000000  0.56052572  0.94457262  1
  C  C154  1  0.50000000  0.61809684  0.27750666  1
  C  C155  1  0.50000000  0.62084800  0.61064506  1
  C  C156  1  0.50000000  0.62142495  0.94539747  1
  C  C157  1  0.50000000  0.67760999  0.27634435  1
  C  C158  1  0.50000000  0.68110324  0.61160600  1
  C  C159  1  0.50000000  0.68231470  0.94384623  1
  C  C160  1  0.50000000  0.74126692  0.61621600  1
  C  C161  1  0.50000000  0.74270298  0.93672705  1
  H  H162  1  0.50000000  0.23657435  0.70328351  1
  H  H163  1  0.50000000  0.76291284  0.70427947  1
  H  H164  1  0.50000000  0.23657246  0.79679558  1
  H  H165  1  0.50000000  0.76286115  0.79595781  1
  H  H166  1  0.50000000  0.23761948  0.53398500  1
  H  H167  1  0.50000000  0.23654226  0.87106666  1
  H  H168  1  0.50000000  0.76612973  0.54296515  1
  H  H169  1  0.50000000  0.76380747  0.86181995  1
  H  H170  1  0.50000000  0.23656216  0.62914751  1
  H  H171  1  0.50000000  0.23760114  0.96586470  1
  H  H172  1  0.50000000  0.76375310  0.63839206  1
  H  H173  1  0.50000000  0.76609284  0.95704386  1
  H  H174  1  0.50000000  0.29075759  0.01323015  1
  H  H175  1  0.50000000  0.34879137  0.01143646  1
  H  H176  1  0.50000000  0.38621015  0.28766585  1
  H  H177  1  0.50000000  0.71934443  0.00536061  1
  H  H178  1  0.50000000  0.38791536  0.04619611  1
  H  H179  1  0.50000000  0.38648101  0.38060356  1
  H  H180  1  0.50000000  0.70233693  0.04705971  1
  H  H181  1  0.50000000  0.70061652  0.36577243  1
  H  H182  1  0.50000000  0.70062278  0.13409419  1
  H  H183  1  0.50000000  0.70240146  0.45263612  1
  H  H184  1  0.50000000  0.38646579  0.11959361  1
  H  H185  1  0.50000000  0.38795517  0.45367753  1
  H  H186  1  0.50000000  0.29074461  0.48689505  1
  H  H187  1  0.50000000  0.34878093  0.48843494  1
  H  H188  1  0.50000000  0.38627732  0.21259628  1
  H  H189  1  0.50000000  0.71933478  0.49454249  1
  H  H190  1  0.50000000  0.70087915  0.20339792  1
  H  H191  1  0.50000000  0.70091489  0.29640878  1
