# generated using pymatgen
data_H14C75
_symmetry_space_group_name_H-M   'P 1'
_cell_length_a   20.00000000
_cell_length_b   40.19450000
_cell_length_c   25.89877595
_cell_angle_alpha   90.00000000
_cell_angle_beta   90.00000000
_cell_angle_gamma   90.00000000
_symmetry_Int_Tables_number   1
_chemical_formula_structural   H14C75
_chemical_formula_sum   'H28 C150'
_cell_volume   20819.76699891
_cell_formula_units_Z   2
loop_
 _symmetry_equiv_pos_site_id
 _symmetry_equiv_pos_as_xyz
  1  'x, y, z'
loop_
 _atom_site_type_symbol
 _atom_site_label
 _atom_site_symmetry_multiplicity
 _atom_site_fract_x
 _atom_site_fract_y
 _atom_site_fract_z
 _atom_site_occupancy
  C  C0  1  0.50000000  0.28678901  0.61045817  1
  C  C1  1  0.50000000  0.28719571  0.77650705  1
  C  C2  1  0.50000000  0.28671341  0.94253635  1
  C  C3  1  0.50000000  0.31591914  0.13916604  1
  C  C4  1  0.50000000  0.31711746  0.63924400  1
  C  C5  1  0.50000000  0.31561299  0.30746187  1
  C  C6  1  0.50000000  0.31729001  0.80533331  1
  C  C7  1  0.50000000  0.31701249  0.47483756  1
  C  C8  1  0.50000000  0.31705518  0.97099014  1
  C  C9  1  0.50000000  0.28668677  0.55753017  1
  C  C10  1  0.50000000  0.28720785  0.72355917  1
  C  C11  1  0.50000000  0.28681285  0.88961611  1
  C  C12  1  0.50000000  0.34592293  0.11051677  1
  C  C13  1  0.50000000  0.34787498  0.61197213  1
  C  C14  1  0.50000000  0.34537386  0.27816897  1
  C  C15  1  0.50000000  0.34804280  0.77777314  1
  C  C16  1  0.50000000  0.34637276  0.44593871  1
  C  C17  1  0.50000000  0.34787490  0.94337158  1
  C  C18  1  0.50000000  0.37634750  0.13844577  1
  C  C19  1  0.50000000  0.37878920  0.63958051  1
  C  C20  1  0.50000000  0.37607205  0.30583161  1
  C  C21  1  0.50000000  0.37891306  0.80543667  1
  C  C22  1  0.50000000  0.37752041  0.47316948  1
  C  C23  1  0.50000000  0.37822394  0.97161882  1
  C  C24  1  0.50000000  0.31702329  0.02521804  1
  C  C25  1  0.50000000  0.31703431  0.52906745  1
  C  C26  1  0.50000000  0.31563225  0.19258557  1
  C  C27  1  0.50000000  0.31729563  0.69472551  1
  C  C28  1  0.50000000  0.31589972  0.36087628  1
  C  C29  1  0.50000000  0.31712750  0.86080871  1
  C  C30  1  0.50000000  0.34637327  0.05411025  1
  C  C31  1  0.50000000  0.34785549  0.55667232  1
  C  C32  1  0.50000000  0.34538121  0.22188866  1
  C  C33  1  0.50000000  0.34804281  0.72229235  1
  C  C34  1  0.50000000  0.34590859  0.38952180  1
  C  C35  1  0.50000000  0.34789079  0.88807021  1
  C  C36  1  0.50000000  0.40735914  0.11053842  1
  C  C37  1  0.50000000  0.40945830  0.61145876  1
  C  C38  1  0.50000000  0.40678124  0.27769923  1
  C  C39  1  0.50000000  0.40978994  0.77774662  1
  C  C40  1  0.50000000  0.40801387  0.44489083  1
  C  C41  1  0.50000000  0.40922313  0.94392061  1
  C  C42  1  0.50000000  0.43769940  0.13859064  1
  C  C43  1  0.50000000  0.44034182  0.63902825  1
  C  C44  1  0.50000000  0.43738953  0.30569458  1
  C  C45  1  0.50000000  0.44043797  0.80547604  1
  C  C46  1  0.50000000  0.43891296  0.47259818  1
  C  C47  1  0.50000000  0.43970160  0.97183955  1
  C  C48  1  0.50000000  0.37752180  0.02688371  1
  C  C49  1  0.50000000  0.37820745  0.52842971  1
  C  C50  1  0.50000000  0.37607616  0.19421901  1
  C  C51  1  0.50000000  0.37890570  0.69462912  1
  C  C52  1  0.50000000  0.37634673  0.36160363  1
  C  C53  1  0.50000000  0.37880659  0.86047659  1
  C  C54  1  0.50000000  0.40802103  0.05515072  1
  C  C55  1  0.50000000  0.40920258  0.55612888  1
  C  C56  1  0.50000000  0.40678736  0.22234355  1
  C  C57  1  0.50000000  0.40978321  0.72231946  1
  C  C58  1  0.50000000  0.40736309  0.38949932  1
  C  C59  1  0.50000000  0.40947597  0.88859437  1
  C  C60  1  0.50000000  0.46842834  0.11087781  1
  C  C61  1  0.50000000  0.47097700  0.61107777  1
  C  C62  1  0.50000000  0.46778684  0.27777823  1
  C  C63  1  0.50000000  0.47128026  0.77776274  1
  C  C64  1  0.50000000  0.46927572  0.44459374  1
  C  C65  1  0.50000000  0.47070886  0.94430477  1
  C  C66  1  0.50000000  0.49874312  0.13916162  1
  C  C67  1  0.50000000  0.50209247  0.63859075  1
  C  C68  1  0.50000000  0.49838048  0.30578083  1
  C  C69  1  0.50000000  0.50204454  0.80576365  1
  C  C70  1  0.50000000  0.50034415  0.47224429  1
  C  C71  1  0.50000000  0.50138500  0.97255409  1
  C  C72  1  0.50000000  0.43892179  0.02744740  1
  C  C73  1  0.50000000  0.43968408  0.52819863  1
  C  C74  1  0.50000000  0.43739553  0.19435649  1
  C  C75  1  0.50000000  0.44042700  0.69459885  1
  C  C76  1  0.50000000  0.43770840  0.36145371  1
  C  C77  1  0.50000000  0.44036188  0.86103729  1
  C  C78  1  0.50000000  0.46927599  0.05547806  1
  C  C79  1  0.50000000  0.47070526  0.55573587  1
  C  C80  1  0.50000000  0.46779503  0.22227131  1
  C  C81  1  0.50000000  0.47127194  0.72231706  1
  C  C82  1  0.50000000  0.46844258  0.38918953  1
  C  C83  1  0.50000000  0.47099525  0.88897341  1
  C  C84  1  0.50000000  0.52957485  0.11178034  1
  C  C85  1  0.50000000  0.53268752  0.61078549  1
  C  C86  1  0.50000000  0.52873867  0.27750065  1
  C  C87  1  0.50000000  0.53263969  0.77785762  1
  C  C88  1  0.50000000  0.53072459  0.44396000  1
  C  C89  1  0.50000000  0.53283251  0.94535270  1
  C  C90  1  0.50000000  0.55924644  0.14114429  1
  C  C91  1  0.50000000  0.56345706  0.63909728  1
  C  C92  1  0.50000000  0.55934165  0.30411389  1
  C  C93  1  0.50000000  0.56341745  0.80562178  1
  C  C94  1  0.50000000  0.56206229  0.47073845  1
  C  C95  1  0.50000000  0.56347088  0.97344131  1
  C  C96  1  0.50000000  0.50033550  0.02780221  1
  C  C97  1  0.50000000  0.50139730  0.52749591  1
  C  C98  1  0.50000000  0.49838996  0.19428511  1
  C  C99  1  0.50000000  0.50203268  0.69431841  1
  C  C100  1  0.50000000  0.49875682  0.36089999  1
  C  C101  1  0.50000000  0.50211209  0.86147314  1
  C  C102  1  0.50000000  0.53070356  0.05609425  1
  C  C103  1  0.50000000  0.53283325  0.55466881  1
  C  C104  1  0.50000000  0.52874868  0.22255304  1
  C  C105  1  0.50000000  0.53263101  0.72222723  1
  C  C106  1  0.50000000  0.52960140  0.38827140  1
  C  C107  1  0.50000000  0.53272398  0.88922958  1
  C  C108  1  0.50000000  0.58944080  0.11458184  1
  C  C109  1  0.50000000  0.59433722  0.61199252  1
  C  C110  1  0.50000000  0.58970546  0.27633409  1
  C  C111  1  0.50000000  0.59421684  0.77776234  1
  C  C112  1  0.50000000  0.59039850  0.43774329  1
  C  C113  1  0.50000000  0.59479909  0.94396427  1
  C  C114  1  0.50000000  0.62505075  0.64010497  1
  C  C115  1  0.50000000  0.62493897  0.80478245  1
  C  C116  1  0.50000000  0.62635427  0.96597862  1
  C  C117  1  0.50000000  0.56201884  0.02929491  1
  C  C118  1  0.50000000  0.56347453  0.52661361  1
  C  C119  1  0.50000000  0.55934916  0.19592107  1
  C  C120  1  0.50000000  0.56340465  0.69447926  1
  C  C121  1  0.50000000  0.55927361  0.35888155  1
  C  C122  1  0.50000000  0.56349688  0.86097984  1
  C  C123  1  0.50000000  0.59035079  0.06225510  1
  C  C124  1  0.50000000  0.59478388  0.55615310  1
  C  C125  1  0.50000000  0.58971771  0.22369278  1
  C  C126  1  0.50000000  0.59420705  0.72231233  1
  C  C127  1  0.50000000  0.58948184  0.38541545  1
  C  C128  1  0.50000000  0.59438310  0.88807544  1
  C  C129  1  0.50000000  0.65652507  0.61432646  1
  C  C130  1  0.50000000  0.65610104  0.77749496  1
  C  C131  1  0.50000000  0.65682097  0.94006534  1
  C  C132  1  0.50000000  0.68759970  0.64029266  1
  C  C133  1  0.50000000  0.68715600  0.80413869  1
  C  C134  1  0.50000000  0.68698819  0.96835869  1
  C  C135  1  0.50000000  0.62628509  0.53405234  1
  C  C136  1  0.50000000  0.62490380  0.69522379  1
  C  C137  1  0.50000000  0.62512245  0.85988811  1
  C  C138  1  0.50000000  0.65673253  0.55995076  1
  C  C139  1  0.50000000  0.65608105  0.72248027  1
  C  C140  1  0.50000000  0.65660972  0.88566833  1
  C  C141  1  0.50000000  0.71728573  0.61153044  1
  C  C142  1  0.50000000  0.71716221  0.77646394  1
  C  C143  1  0.50000000  0.71711844  0.94242195  1
  C  C144  1  0.50000000  0.68686854  0.53162665  1
  C  C145  1  0.50000000  0.68712089  0.69580917  1
  C  C146  1  0.50000000  0.68767127  0.85965512  1
  C  C147  1  0.50000000  0.71701466  0.55749534  1
  C  C148  1  0.50000000  0.71713476  0.72346307  1
  C  C149  1  0.50000000  0.71736363  0.88838987  1
  H  H150  1  0.50000000  0.26294353  0.63074396  1
  H  H151  1  0.50000000  0.26326853  0.79651676  1
  H  H152  1  0.50000000  0.26318328  0.96394063  1
  H  H153  1  0.50000000  0.26315932  0.53609154  1
  H  H154  1  0.50000000  0.26330102  0.70351240  1
  H  H155  1  0.50000000  0.26294415  0.86942287  1
  H  H156  1  0.50000000  0.74134571  0.63120934  1
  H  H157  1  0.50000000  0.74093679  0.79688333  1
  H  H158  1  0.50000000  0.74065490  0.96374531  1
  H  H159  1  0.50000000  0.74052754  0.53607953  1
  H  H160  1  0.50000000  0.74089648  0.70301493  1
  H  H161  1  0.50000000  0.74144505  0.86876563  1
  H  H162  1  0.50000000  0.68600091  0.48932807  1
  H  H163  1  0.50000000  0.29191683  0.11926054  1
  H  H164  1  0.50000000  0.29144656  0.28801632  1
  H  H165  1  0.50000000  0.29285598  0.45541285  1
  H  H166  1  0.50000000  0.29286303  0.04463499  1
  H  H167  1  0.50000000  0.29145999  0.21200972  1
  H  H168  1  0.50000000  0.29191754  0.38085680  1
  H  H169  1  0.50000000  0.61318972  0.13491966  1
  H  H170  1  0.50000000  0.61353597  0.29645267  1
  H  H171  1  0.50000000  0.61553158  0.45063669  1
  H  H172  1  0.50000000  0.63073861  0.00640250  1
  H  H173  1  0.50000000  0.61546081  0.04929346  1
  H  H174  1  0.50000000  0.61358855  0.20368034  1
  H  H175  1  0.50000000  0.61323774  0.36507316  1
  H  H176  1  0.50000000  0.68608794  0.01065532  1
  H  H177  1  0.50000000  0.63065719  0.49362300  1
