# generated using pymatgen
data_H7C27
_symmetry_space_group_name_H-M   'P 1'
_cell_length_a   10.00000000
_cell_length_b   41.10890000
_cell_length_c   25.89478046
_cell_angle_alpha   90.00000000
_cell_angle_beta   90.00000000
_cell_angle_gamma   90.00000000
_symmetry_Int_Tables_number   1
_chemical_formula_structural   H7C27
_chemical_formula_sum   'H42 C162'
_cell_volume   10645.05940464
_cell_formula_units_Z   6
loop_
 _symmetry_equiv_pos_site_id
 _symmetry_equiv_pos_as_xyz
  1  'x, y, z'
loop_
 _atom_site_type_symbol
 _atom_site_label
 _atom_site_symmetry_multiplicity
 _atom_site_fract_x
 _atom_site_fract_y
 _atom_site_fract_z
 _atom_site_occupancy
  C  C0  1  0.50000000  0.29012807  0.30522015  1
  C  C1  1  0.50000000  0.28977338  0.63872349  1
  C  C2  1  0.50000000  0.28973763  0.97185279  1
  C  C3  1  0.50000000  0.35026990  0.30572115  1
  C  C4  1  0.50000000  0.34991856  0.63902722  1
  C  C5  1  0.50000000  0.34988185  0.97208709  1
  C  C6  1  0.50000000  0.40935999  0.30696078  1
  C  C7  1  0.50000000  0.40979669  0.63922109  1
  C  C8  1  0.50000000  0.40961496  0.97192515  1
  C  C9  1  0.50000000  0.46980734  0.63971044  1
  C  C10  1  0.50000000  0.47014625  0.96905210  1
  C  C11  1  0.50000000  0.52996299  0.64024636  1
  C  C12  1  0.50000000  0.53003714  0.96894546  1
  C  C13  1  0.50000000  0.59009012  0.63978285  1
  C  C14  1  0.50000000  0.58988454  0.96900727  1
  C  C15  1  0.50000000  0.65045322  0.30719462  1
  C  C16  1  0.50000000  0.65000091  0.63925014  1
  C  C17  1  0.50000000  0.65044273  0.97217335  1
  C  C18  1  0.50000000  0.70980422  0.30547006  1
  C  C19  1  0.50000000  0.71015442  0.63885392  1
  C  C20  1  0.50000000  0.71047436  0.97193010  1
  C  C21  1  0.50000000  0.28976580  0.02790884  1
  C  C22  1  0.50000000  0.29006280  0.36140953  1
  C  C23  1  0.50000000  0.28977317  0.69475294  1
  C  C24  1  0.50000000  0.34981323  0.02736086  1
  C  C25  1  0.50000000  0.35021267  0.36124480  1
  C  C26  1  0.50000000  0.34988828  0.69443403  1
  C  C27  1  0.50000000  0.40876322  0.02598581  1
  C  C28  1  0.50000000  0.40925053  0.36036172  1
  C  C29  1  0.50000000  0.40974738  0.69450421  1
  C  C30  1  0.50000000  0.46974167  0.69501722  1
  C  C31  1  0.50000000  0.52995935  0.69534748  1
  C  C32  1  0.50000000  0.59014825  0.69499271  1
  C  C33  1  0.50000000  0.65132508  0.02578611  1
  C  C34  1  0.50000000  0.65063434  0.36029202  1
  C  C35  1  0.50000000  0.65008829  0.69440112  1
  C  C36  1  0.50000000  0.71055766  0.02761654  1
  C  C37  1  0.50000000  0.70993914  0.36132544  1
  C  C38  1  0.50000000  0.71018690  0.69476420  1
  C  C39  1  0.50000000  0.26057485  0.05672342  1
  C  C40  1  0.50000000  0.26075306  0.38990680  1
  C  C41  1  0.50000000  0.26058035  0.72334937  1
  C  C42  1  0.50000000  0.31971517  0.05539306  1
  C  C43  1  0.50000000  0.31985501  0.38906581  1
  C  C44  1  0.50000000  0.31976139  0.72226492  1
  C  C45  1  0.50000000  0.37992720  0.05462702  1
  C  C46  1  0.50000000  0.38006785  0.38895787  1
  C  C47  1  0.50000000  0.37975896  0.72215503  1
  C  C48  1  0.50000000  0.43976749  0.72235918  1
  C  C49  1  0.50000000  0.49981403  0.72248441  1
  C  C50  1  0.50000000  0.56004088  0.72247231  1
  C  C51  1  0.50000000  0.62013584  0.72231536  1
  C  C52  1  0.50000000  0.68039702  0.05477538  1
  C  C53  1  0.50000000  0.68010512  0.38913542  1
  C  C54  1  0.50000000  0.68021086  0.72228873  1
  C  C55  1  0.50000000  0.73982581  0.05695984  1
  C  C56  1  0.50000000  0.73953958  0.38999748  1
  C  C57  1  0.50000000  0.73945488  0.72340826  1
  C  C58  1  0.50000000  0.26075123  0.11003038  1
  C  C59  1  0.50000000  0.26056329  0.44322403  1
  C  C60  1  0.50000000  0.26058967  0.77671949  1
  C  C61  1  0.50000000  0.31988374  0.11092851  1
  C  C62  1  0.50000000  0.31968063  0.44460930  1
  C  C63  1  0.50000000  0.31976339  0.77775159  1
  C  C64  1  0.50000000  0.38008620  0.11109424  1
  C  C65  1  0.50000000  0.37989611  0.44539674  1
  C  C66  1  0.50000000  0.37975938  0.77783744  1
  C  C67  1  0.50000000  0.43976651  0.77763022  1
  C  C68  1  0.50000000  0.49981098  0.77751004  1
  C  C69  1  0.50000000  0.56004049  0.77752488  1
  C  C70  1  0.50000000  0.62013464  0.77767794  1
  C  C71  1  0.50000000  0.68004268  0.11088111  1
  C  C72  1  0.50000000  0.68044654  0.44523344  1
  C  C73  1  0.50000000  0.68020681  0.77773408  1
  C  C74  1  0.50000000  0.73949794  0.11000334  1
  C  C75  1  0.50000000  0.73984815  0.44304178  1
  C  C76  1  0.50000000  0.73944278  0.77666895  1
  C  C77  1  0.50000000  0.29007344  0.13852619  1
  C  C78  1  0.50000000  0.28974081  0.47207671  1
  C  C79  1  0.50000000  0.28978451  0.80528542  1
  C  C80  1  0.50000000  0.35022372  0.13879246  1
  C  C81  1  0.50000000  0.34978010  0.47262959  1
  C  C82  1  0.50000000  0.34989116  0.80556694  1
  C  C83  1  0.50000000  0.40925792  0.13972558  1
  C  C84  1  0.50000000  0.40874932  0.47398439  1
  C  C85  1  0.50000000  0.40974655  0.80547457  1
  C  C86  1  0.50000000  0.46973733  0.80496992  1
  C  C87  1  0.50000000  0.52995723  0.80464103  1
  C  C88  1  0.50000000  0.59014825  0.80500280  1
  C  C89  1  0.50000000  0.65058806  0.13978129  1
  C  C90  1  0.50000000  0.65135328  0.47418654  1
  C  C91  1  0.50000000  0.65008598  0.80560332  1
  C  C92  1  0.50000000  0.70988830  0.13867124  1
  C  C93  1  0.50000000  0.71058853  0.47240636  1
  C  C94  1  0.50000000  0.71017182  0.80527714  1
  C  C95  1  0.50000000  0.29011674  0.19466589  1
  C  C96  1  0.50000000  0.28971938  0.52813656  1
  C  C97  1  0.50000000  0.28977873  0.86131154  1
  C  C98  1  0.50000000  0.35028386  0.19429273  1
  C  C99  1  0.50000000  0.34986164  0.52790001  1
  C  C100  1  0.50000000  0.34991752  0.86096744  1
  C  C101  1  0.50000000  0.40934489  0.19314451  1
  C  C102  1  0.50000000  0.40961850  0.52803536  1
  C  C103  1  0.50000000  0.40979157  0.86074817  1
  C  C104  1  0.50000000  0.47015166  0.53090447  1
  C  C105  1  0.50000000  0.46980050  0.86026644  1
  C  C106  1  0.50000000  0.53004360  0.53100507  1
  C  C107  1  0.50000000  0.52996096  0.85973168  1
  C  C108  1  0.50000000  0.58988319  0.53094911  1
  C  C109  1  0.50000000  0.59009588  0.86020434  1
  C  C110  1  0.50000000  0.65043633  0.19289004  1
  C  C111  1  0.50000000  0.65044604  0.52780230  1
  C  C112  1  0.50000000  0.65000606  0.86074214  1
  C  C113  1  0.50000000  0.70976751  0.19452874  1
  C  C114  1  0.50000000  0.71048739  0.52810194  1
  C  C115  1  0.50000000  0.71015480  0.86117930  1
  C  C116  1  0.50000000  0.26090005  0.22326997  1
  C  C117  1  0.50000000  0.26047451  0.55680089  1
  C  C118  1  0.50000000  0.26051429  0.88991325  1
  C  C119  1  0.50000000  0.32003040  0.22214518  1
  C  C120  1  0.50000000  0.31963631  0.55575516  1
  C  C121  1  0.50000000  0.31968905  0.88882793  1
  C  C122  1  0.50000000  0.38021581  0.22190192  1
  C  C123  1  0.50000000  0.37975848  0.55583863  1
  C  C124  1  0.50000000  0.37972571  0.88845699  1
  C  C125  1  0.50000000  0.44036566  0.55627186  1
  C  C126  1  0.50000000  0.43991229  0.88812978  1
  C  C127  1  0.50000000  0.50016611  0.55747859  1
  C  C128  1  0.50000000  0.49999331  0.88709447  1
  C  C129  1  0.50000000  0.55975224  0.55753433  1
  C  C130  1  0.50000000  0.55991207  0.88703518  1
  C  C131  1  0.50000000  0.61958879  0.55611778  1
  C  C132  1  0.50000000  0.62004635  0.88810269  1
  C  C133  1  0.50000000  0.67979215  0.22205448  1
  C  C134  1  0.50000000  0.68052410  0.55587976  1
  C  C135  1  0.50000000  0.68037386  0.88868926  1
  C  C136  1  0.50000000  0.73922260  0.22345924  1
  C  C137  1  0.50000000  0.73985204  0.55710243  1
  C  C138  1  0.50000000  0.73964063  0.88989176  1
  C  C139  1  0.50000000  0.26089889  0.27661213  1
  C  C140  1  0.50000000  0.26051687  0.61010866  1
  C  C141  1  0.50000000  0.26048349  0.94322158  1
  C  C142  1  0.50000000  0.32004481  0.27763566  1
  C  C143  1  0.50000000  0.31968243  0.61118394  1
  C  C144  1  0.50000000  0.31965243  0.94424621  1
  C  C145  1  0.50000000  0.38022463  0.27818455  1
  C  C146  1  0.50000000  0.37972769  0.61151050  1
  C  C147  1  0.50000000  0.37976106  0.94412278  1
  C  C148  1  0.50000000  0.43991995  0.61183622  1
  C  C149  1  0.50000000  0.44036131  0.94368551  1
  C  C150  1  0.50000000  0.49999820  0.61287298  1
  C  C151  1  0.50000000  0.50015868  0.94248190  1
  C  C152  1  0.50000000  0.55991015  0.61293338  1
  C  C153  1  0.50000000  0.55974968  0.94242911  1
  C  C154  1  0.50000000  0.62004266  0.61188233  1
  C  C155  1  0.50000000  0.61958717  0.94385420  1
  C  C156  1  0.50000000  0.67980239  0.27799564  1
  C  C157  1  0.50000000  0.68037174  0.61131873  1
  C  C158  1  0.50000000  0.68052578  0.94412777  1
  C  C159  1  0.50000000  0.73924359  0.27647422  1
  C  C160  1  0.50000000  0.73962970  0.61014205  1
  C  C161  1  0.50000000  0.73984755  0.94294622  1
  H  H162  1  0.50000000  0.23707472  0.03693634  1
  H  H163  1  0.50000000  0.23736650  0.36980738  1
  H  H164  1  0.50000000  0.23715756  0.70337436  1
  H  H165  1  0.50000000  0.76337369  0.03733274  1
  H  H166  1  0.50000000  0.76284354  0.36966443  1
  H  H167  1  0.50000000  0.76286493  0.70341835  1
  H  H168  1  0.50000000  0.23739704  0.13021095  1
  H  H169  1  0.50000000  0.23701846  0.46287856  1
  H  H170  1  0.50000000  0.23718737  0.79675162  1
  H  H171  1  0.50000000  0.76277223  0.13041179  1
  H  H172  1  0.50000000  0.76341608  0.46258383  1
  H  H173  1  0.50000000  0.76282618  0.79673114  1
  H  H174  1  0.50000000  0.23748560  0.20326551  1
  H  H175  1  0.50000000  0.23701439  0.53692473  1
  H  H176  1  0.50000000  0.23711982  0.86984858  1
  H  H177  1  0.50000000  0.76262550  0.20341853  1
  H  H178  1  0.50000000  0.76331046  0.53721360  1
  H  H179  1  0.50000000  0.76296192  0.86963777  1
  H  H180  1  0.50000000  0.23746130  0.29656069  1
  H  H181  1  0.50000000  0.23710525  0.63012281  1
  H  H182  1  0.50000000  0.23706689  0.96322719  1
  H  H183  1  0.50000000  0.76267957  0.29642047  1
  H  H184  1  0.50000000  0.76296724  0.63032525  1
  H  H185  1  0.50000000  0.76326353  0.96296515  1
  H  H186  1  0.50000000  0.43284592  0.28720238  1
  H  H187  1  0.50000000  0.47125734  0.01122085  1
  H  H188  1  0.50000000  0.53007927  0.01129118  1
  H  H189  1  0.50000000  0.58862594  0.01118344  1
  H  H190  1  0.50000000  0.62691944  0.28752507  1
  H  H191  1  0.50000000  0.43176310  0.04679834  1
  H  H192  1  0.50000000  0.43270250  0.38020707  1
  H  H193  1  0.50000000  0.62840388  0.04682213  1
  H  H194  1  0.50000000  0.62718674  0.38021971  1
  H  H195  1  0.50000000  0.43274979  0.11996201  1
  H  H196  1  0.50000000  0.43170585  0.45304484  1
  H  H197  1  0.50000000  0.62709459  0.11998187  1
  H  H198  1  0.50000000  0.62845401  0.45307405  1
  H  H199  1  0.50000000  0.43282473  0.21292489  1
  H  H200  1  0.50000000  0.47126595  0.48873722  1
  H  H201  1  0.50000000  0.53008140  0.48865617  1
  H  H202  1  0.50000000  0.58860978  0.48877943  1
  H  H203  1  0.50000000  0.62693321  0.21266527  1
