# generated using pymatgen
data_H5C18
_symmetry_space_group_name_H-M   'P 1'
_cell_length_a   20.00000000
_cell_length_b   37.22700000
_cell_length_c   25.93453313
_cell_angle_alpha   90.00000000
_cell_angle_beta   90.00000000
_cell_angle_gamma   90.00000000
_symmetry_Int_Tables_number   1
_chemical_formula_structural   H5C18
_chemical_formula_sum   'H40 C144'
_cell_volume   19309.29729345
_cell_formula_units_Z   8
loop_
 _symmetry_equiv_pos_site_id
 _symmetry_equiv_pos_as_xyz
  1  'x, y, z'
loop_
 _atom_site_type_symbol
 _atom_site_label
 _atom_site_symmetry_multiplicity
 _atom_site_fract_x
 _atom_site_fract_y
 _atom_site_fract_z
 _atom_site_occupancy
  C  C0  1  0.50000000  0.31610091  0.22226949  1
  C  C1  1  0.50000000  0.31525114  0.55588409  1
  C  C2  1  0.50000000  0.31522276  0.88871026  1
  C  C3  1  0.50000000  0.38251393  0.22217593  1
  C  C4  1  0.50000000  0.38159946  0.55662446  1
  C  C5  1  0.50000000  0.38157450  0.88842933  1
  C  C6  1  0.50000000  0.44874512  0.55722629  1
  C  C7  1  0.50000000  0.44825989  0.88724784  1
  C  C8  1  0.50000000  0.51455048  0.56045514  1
  C  C9  1  0.50000000  0.51473014  0.88528114  1
  C  C10  1  0.50000000  0.59182265  0.22382954  1
  C  C11  1  0.50000000  0.58138013  0.55568254  1
  C  C12  1  0.50000000  0.58162840  0.88837828  1
  C  C13  1  0.50000000  0.65794811  0.22234627  1
  C  C14  1  0.50000000  0.64851093  0.55525441  1
  C  C15  1  0.50000000  0.64814752  0.88885447  1
  C  C16  1  0.50000000  0.72301903  0.22328129  1
  C  C17  1  0.50000000  0.71462939  0.55890824  1
  C  C18  1  0.50000000  0.71393524  0.88840011  1
  C  C19  1  0.50000000  0.31609258  0.27765241  1
  C  C20  1  0.50000000  0.31522139  0.61127110  1
  C  C21  1  0.50000000  0.31525751  0.94411652  1
  C  C22  1  0.50000000  0.38250936  0.27779801  1
  C  C23  1  0.50000000  0.38157941  0.61157719  1
  C  C24  1  0.50000000  0.38159980  0.94337206  1
  C  C25  1  0.50000000  0.44826706  0.61272901  1
  C  C26  1  0.50000000  0.44874249  0.94274680  1
  C  C27  1  0.50000000  0.51474056  0.61474285  1
  C  C28  1  0.50000000  0.51453411  0.93957176  1
  C  C29  1  0.50000000  0.59181383  0.27619823  1
  C  C30  1  0.50000000  0.58162781  0.61166686  1
  C  C31  1  0.50000000  0.58136414  0.94435615  1
  C  C32  1  0.50000000  0.65794170  0.27766091  1
  C  C33  1  0.50000000  0.64814157  0.61115244  1
  C  C34  1  0.50000000  0.64851373  0.94475836  1
  C  C35  1  0.50000000  0.72302479  0.27672193  1
  C  C36  1  0.50000000  0.71394522  0.61161022  1
  C  C37  1  0.50000000  0.71462888  0.94109612  1
  C  C38  1  0.50000000  0.28356277  0.30673338  1
  C  C39  1  0.50000000  0.28270744  0.64028568  1
  C  C40  1  0.50000000  0.28288175  0.97345752  1
  C  C41  1  0.50000000  0.34925935  0.30563026  1
  C  C42  1  0.50000000  0.34837902  0.63915438  1
  C  C43  1  0.50000000  0.34849480  0.97170834  1
  C  C44  1  0.50000000  0.41483332  0.30733149  1
  C  C45  1  0.50000000  0.41495952  0.63980338  1
  C  C46  1  0.50000000  0.41484589  0.97151934  1
  C  C47  1  0.50000000  0.48127281  0.64097372  1
  C  C48  1  0.50000000  0.48182536  0.96721173  1
  C  C49  1  0.50000000  0.54855971  0.64025871  1
  C  C50  1  0.50000000  0.54714934  0.96632337  1
  C  C51  1  0.50000000  0.62450321  0.30421583  1
  C  C52  1  0.50000000  0.61478389  0.63921844  1
  C  C53  1  0.50000000  0.61556599  0.97373764  1
  C  C54  1  0.50000000  0.69067040  0.30645858  1
  C  C55  1  0.50000000  0.68095828  0.63918503  1
  C  C56  1  0.50000000  0.68266080  0.97091505  1
  C  C57  1  0.50000000  0.28295212  0.02642093  1
  C  C58  1  0.50000000  0.28343472  0.35969082  1
  C  C59  1  0.50000000  0.28267494  0.69318696  1
  C  C60  1  0.50000000  0.34855506  0.02726276  1
  C  C61  1  0.50000000  0.34911659  0.36146869  1
  C  C62  1  0.50000000  0.34830578  0.69465102  1
  C  C63  1  0.50000000  0.41403765  0.02518864  1
  C  C64  1  0.50000000  0.41467155  0.36040998  1
  C  C65  1  0.50000000  0.41485889  0.69468510  1
  C  C66  1  0.50000000  0.48134259  0.69574434  1
  C  C67  1  0.50000000  0.54844020  0.69530401  1
  C  C68  1  0.50000000  0.61833292  0.02932984  1
  C  C69  1  0.50000000  0.62358502  0.35870801  1
  C  C70  1  0.50000000  0.61472462  0.69431592  1
  C  C71  1  0.50000000  0.68499591  0.02621381  1
  C  C72  1  0.50000000  0.68934513  0.36234404  1
  C  C73  1  0.50000000  0.68090075  0.69479917  1
  C  C74  1  0.50000000  0.31551424  0.05534373  1
  C  C75  1  0.50000000  0.31576346  0.38911255  1
  C  C76  1  0.50000000  0.31517888  0.72227412  1
  C  C77  1  0.50000000  0.38202588  0.05459786  1
  C  C78  1  0.50000000  0.38222744  0.38961418  1
  C  C79  1  0.50000000  0.38153783  0.72251191  1
  C  C80  1  0.50000000  0.44804427  0.72255994  1
  C  C81  1  0.50000000  0.51493815  0.72261928  1
  C  C82  1  0.50000000  0.58822249  0.06324337  1
  C  C83  1  0.50000000  0.59040355  0.38455920  1
  C  C84  1  0.50000000  0.58161067  0.72243706  1
  C  C85  1  0.50000000  0.65281109  0.05548953  1
  C  C86  1  0.50000000  0.65541544  0.38878719  1
  C  C87  1  0.50000000  0.64785900  0.72232999  1
  C  C88  1  0.50000000  0.71844528  0.05329356  1
  C  C89  1  0.50000000  0.72064038  0.39371589  1
  C  C90  1  0.50000000  0.71337973  0.72348604  1
  C  C91  1  0.50000000  0.31581139  0.11082066  1
  C  C92  1  0.50000000  0.31547578  0.44458079  1
  C  C93  1  0.50000000  0.31517910  0.77771458  1
  C  C94  1  0.50000000  0.38228808  0.11037742  1
  C  C95  1  0.50000000  0.38200605  0.44540643  1
  C  C96  1  0.50000000  0.38153354  0.77748491  1
  C  C97  1  0.50000000  0.44804000  0.77744110  1
  C  C98  1  0.50000000  0.51494004  0.77739291  1
  C  C99  1  0.50000000  0.59042947  0.11546413  1
  C  C100  1  0.50000000  0.58819422  0.43677958  1
  C  C101  1  0.50000000  0.58160798  0.77757468  1
  C  C102  1  0.50000000  0.65542775  0.11124885  1
  C  C103  1  0.50000000  0.65279198  0.44452579  1
  C  C104  1  0.50000000  0.64785907  0.77769122  1
  C  C105  1  0.50000000  0.72064456  0.10632391  1
  C  C106  1  0.50000000  0.71843229  0.44672567  1
  C  C107  1  0.50000000  0.71338490  0.77648599  1
  C  C108  1  0.50000000  0.28348273  0.14024456  1
  C  C109  1  0.50000000  0.28292414  0.47356414  1
  C  C110  1  0.50000000  0.28267466  0.80680056  1
  C  C111  1  0.50000000  0.34915514  0.13847991  1
  C  C112  1  0.50000000  0.34853518  0.47274473  1
  C  C113  1  0.50000000  0.34830420  0.80533946  1
  C  C114  1  0.50000000  0.41472129  0.13959829  1
  C  C115  1  0.50000000  0.41405777  0.47482740  1
  C  C116  1  0.50000000  0.41485127  0.80531034  1
  C  C117  1  0.50000000  0.48134174  0.80425030  1
  C  C118  1  0.50000000  0.54843510  0.80470353  1
  C  C119  1  0.50000000  0.62360252  0.14132958  1
  C  C120  1  0.50000000  0.61831179  0.47067310  1
  C  C121  1  0.50000000  0.61471766  0.80570528  1
  C  C122  1  0.50000000  0.68935005  0.13769770  1
  C  C123  1  0.50000000  0.68498621  0.47378451  1
  C  C124  1  0.50000000  0.68090553  0.80521320  1
  C  C125  1  0.50000000  0.28357654  0.19321505  1
  C  C126  1  0.50000000  0.28286582  0.52653704  1
  C  C127  1  0.50000000  0.28270614  0.85969960  1
  C  C128  1  0.50000000  0.34927590  0.19430805  1
  C  C129  1  0.50000000  0.34849866  0.52832920  1
  C  C130  1  0.50000000  0.34837883  0.86083340  1
  C  C131  1  0.50000000  0.41484898  0.19267597  1
  C  C132  1  0.50000000  0.41484828  0.52847756  1
  C  C133  1  0.50000000  0.41495174  0.86018421  1
  C  C134  1  0.50000000  0.48184335  0.53279696  1
  C  C135  1  0.50000000  0.48127056  0.85901717  1
  C  C136  1  0.50000000  0.54717287  0.53371812  1
  C  C137  1  0.50000000  0.54855356  0.85976900  1
  C  C138  1  0.50000000  0.62451169  0.19581207  1
  C  C139  1  0.50000000  0.61556339  0.52626115  1
  C  C140  1  0.50000000  0.61478177  0.86080442  1
  C  C141  1  0.50000000  0.69067426  0.19356168  1
  C  C142  1  0.50000000  0.68265422  0.52907749  1
  C  C143  1  0.50000000  0.68096491  0.86081274  1
  H  H144  1  0.50000000  0.74905532  0.20360590  1
  H  H145  1  0.50000000  0.74071193  0.53967937  1
  H  H146  1  0.50000000  0.73949068  0.86777866  1
  H  H147  1  0.50000000  0.74907140  0.29641182  1
  H  H148  1  0.50000000  0.73951679  0.63220354  1
  H  H149  1  0.50000000  0.74071103  0.96030100  1
  H  H150  1  0.50000000  0.25763544  0.28692541  1
  H  H151  1  0.50000000  0.25682803  0.62040251  1
  H  H152  1  0.50000000  0.25692427  0.95381016  1
  H  H153  1  0.50000000  0.25703402  0.04625038  1
  H  H154  1  0.50000000  0.25744046  0.37930717  1
  H  H155  1  0.50000000  0.25676729  0.71299146  1
  H  H156  1  0.50000000  0.74362224  0.03165001  1
  H  H157  1  0.50000000  0.74718901  0.37563415  1
  H  H158  1  0.50000000  0.73927288  0.70362645  1
  H  H159  1  0.50000000  0.74720139  0.12442108  1
  H  H160  1  0.50000000  0.74359064  0.46837018  1
  H  H161  1  0.50000000  0.73928938  0.79632013  1
  H  H162  1  0.50000000  0.25749136  0.12062841  1
  H  H163  1  0.50000000  0.25699449  0.45376201  1
  H  H164  1  0.50000000  0.25676040  0.78702496  1
  H  H165  1  0.50000000  0.25763126  0.21299497  1
  H  H166  1  0.50000000  0.25690456  0.54620583  1
  H  H167  1  0.50000000  0.25683790  0.87961701  1
  H  H168  1  0.50000000  0.56611450  0.20379680  1
  H  H169  1  0.50000000  0.56610381  0.29622730  1
  H  H170  1  0.50000000  0.44082203  0.28769821  1
  H  H171  1  0.50000000  0.48363674  0.00934563  1
  H  H172  1  0.50000000  0.54234637  0.00697312  1
  H  H173  1  0.50000000  0.43957641  0.04577976  1
  H  H174  1  0.50000000  0.44057180  0.38033051  1
  H  H175  1  0.50000000  0.56100357  0.05013363  1
  H  H176  1  0.50000000  0.56512357  0.36338791  1
  H  H177  1  0.50000000  0.56515203  0.13664003  1
  H  H178  1  0.50000000  0.56095950  0.44981724  1
  H  H179  1  0.50000000  0.44062275  0.11969955  1
  H  H180  1  0.50000000  0.43955744  0.45414226  1
  H  H181  1  0.50000000  0.44083278  0.21231655  1
  H  H182  1  0.50000000  0.48368240  0.49066718  1
  H  H183  1  0.50000000  0.54240378  0.49306323  1
