# generated using pymatgen
data_H22C81
_symmetry_space_group_name_H-M   'P 1'
_cell_length_a   10.00000000
_cell_length_b   41.10890000
_cell_length_c   26.07417686
_cell_angle_alpha   90.00000000
_cell_angle_beta   90.00000000
_cell_angle_gamma   90.00000000
_symmetry_Int_Tables_number   1
_chemical_formula_structural   H22C81
_chemical_formula_sum   'H44 C162'
_cell_volume   10718.80729177
_cell_formula_units_Z   2
loop_
 _symmetry_equiv_pos_site_id
 _symmetry_equiv_pos_as_xyz
  1  'x, y, z'
loop_
 _atom_site_type_symbol
 _atom_site_label
 _atom_site_symmetry_multiplicity
 _atom_site_fract_x
 _atom_site_fract_y
 _atom_site_fract_z
 _atom_site_occupancy
  C  C0  1  0.50000000  0.28176017  0.30636614  1
  C  C1  1  0.50000000  0.28964675  0.63894138  1
  C  C2  1  0.50000000  0.28831229  0.97108480  1
  C  C3  1  0.50000000  0.34166330  0.30435039  1
  C  C4  1  0.50000000  0.34955787  0.63916705  1
  C  C5  1  0.50000000  0.34897691  0.97374352  1
  C  C6  1  0.50000000  0.40938479  0.64038000  1
  C  C7  1  0.50000000  0.41069944  0.96579153  1
  C  C8  1  0.50000000  0.46998971  0.64181486  1
  C  C9  1  0.50000000  0.46992929  0.96637230  1
  C  C10  1  0.50000000  0.53001031  0.64181486  1
  C  C11  1  0.50000000  0.53007072  0.96637231  1
  C  C12  1  0.50000000  0.59061522  0.64038000  1
  C  C13  1  0.50000000  0.58930057  0.96579153  1
  C  C14  1  0.50000000  0.65833672  0.30435039  1
  C  C15  1  0.50000000  0.65044214  0.63916705  1
  C  C16  1  0.50000000  0.65102311  0.97374352  1
  C  C17  1  0.50000000  0.71823985  0.30636614  1
  C  C18  1  0.50000000  0.71035327  0.63894138  1
  C  C19  1  0.50000000  0.71168773  0.97108480  1
  C  C20  1  0.50000000  0.28637547  0.02645141  1
  C  C21  1  0.50000000  0.28267074  0.36217512  1
  C  C22  1  0.50000000  0.28960608  0.69468254  1
  C  C23  1  0.50000000  0.34667134  0.02925872  1
  C  C24  1  0.50000000  0.34223930  0.35877698  1
  C  C25  1  0.50000000  0.34949667  0.69436135  1
  C  C26  1  0.50000000  0.40931355  0.69524687  1
  C  C27  1  0.50000000  0.46980173  0.69621487  1
  C  C28  1  0.50000000  0.53019829  0.69621487  1
  C  C29  1  0.50000000  0.59068647  0.69524687  1
  C  C30  1  0.50000000  0.65332868  0.02925872  1
  C  C31  1  0.50000000  0.65776072  0.35877698  1
  C  C32  1  0.50000000  0.65050334  0.69436135  1
  C  C33  1  0.50000000  0.71362455  0.02645140  1
  C  C34  1  0.50000000  0.71732928  0.36217512  1
  C  C35  1  0.50000000  0.71039393  0.69468254  1
  C  C36  1  0.50000000  0.25622087  0.05369043  1
  C  C37  1  0.50000000  0.25433216  0.39345160  1
  C  C38  1  0.50000000  0.26038423  0.72337752  1
  C  C39  1  0.50000000  0.31552825  0.05567912  1
  C  C40  1  0.50000000  0.31332167  0.38868763  1
  C  C41  1  0.50000000  0.31949510  0.72227919  1
  C  C42  1  0.50000000  0.37396896  0.06303432  1
  C  C43  1  0.50000000  0.37209445  0.38503963  1
  C  C44  1  0.50000000  0.37930333  0.72236975  1
  C  C45  1  0.50000000  0.43949719  0.72265157  1
  C  C46  1  0.50000000  0.50000001  0.72291231  1
  C  C47  1  0.50000000  0.56050282  0.72265157  1
  C  C48  1  0.50000000  0.62603106  0.06303432  1
  C  C49  1  0.50000000  0.62790557  0.38503963  1
  C  C50  1  0.50000000  0.62069668  0.72236975  1
  C  C51  1  0.50000000  0.68447177  0.05567912  1
  C  C52  1  0.50000000  0.68667836  0.38868763  1
  C  C53  1  0.50000000  0.68050491  0.72227919  1
  C  C54  1  0.50000000  0.74377915  0.05369042  1
  C  C55  1  0.50000000  0.74566787  0.39345160  1
  C  C56  1  0.50000000  0.73961578  0.72337752  1
  C  C57  1  0.50000000  0.25430782  0.10659164  1
  C  C58  1  0.50000000  0.25620677  0.44632817  1
  C  C59  1  0.50000000  0.26037578  0.77637862  1
  C  C60  1  0.50000000  0.31330462  0.11139686  1
  C  C61  1  0.50000000  0.31550107  0.44436919  1
  C  C62  1  0.50000000  0.31949442  0.77759963  1
  C  C63  1  0.50000000  0.37207073  0.11510641  1
  C  C64  1  0.50000000  0.37393828  0.43711835  1
  C  C65  1  0.50000000  0.37931512  0.77752577  1
  C  C66  1  0.50000000  0.43950710  0.77729851  1
  C  C67  1  0.50000000  0.50000001  0.77706932  1
  C  C68  1  0.50000000  0.56049291  0.77729851  1
  C  C69  1  0.50000000  0.62792929  0.11510641  1
  C  C70  1  0.50000000  0.62606174  0.43711835  1
  C  C71  1  0.50000000  0.62068489  0.77752577  1
  C  C72  1  0.50000000  0.68669540  0.11139686  1
  C  C73  1  0.50000000  0.68449895  0.44436919  1
  C  C74  1  0.50000000  0.68050560  0.77759964  1
  C  C75  1  0.50000000  0.74569220  0.10659163  1
  C  C76  1  0.50000000  0.74379326  0.44632817  1
  C  C77  1  0.50000000  0.73962423  0.77637862  1
  C  C78  1  0.50000000  0.28264463  0.13790591  1
  C  C79  1  0.50000000  0.28634804  0.47355893  1
  C  C80  1  0.50000000  0.28959221  0.80516046  1
  C  C81  1  0.50000000  0.34220738  0.14134219  1
  C  C82  1  0.50000000  0.34661769  0.47079559  1
  C  C83  1  0.50000000  0.34950230  0.80553377  1
  C  C84  1  0.50000000  0.40931518  0.80467481  1
  C  C85  1  0.50000000  0.46981159  0.80376964  1
  C  C86  1  0.50000000  0.53018843  0.80376964  1
  C  C87  1  0.50000000  0.59068484  0.80467481  1
  C  C88  1  0.50000000  0.65779264  0.14134219  1
  C  C89  1  0.50000000  0.65338233  0.47079559  1
  C  C90  1  0.50000000  0.65049771  0.80553377  1
  C  C91  1  0.50000000  0.71735539  0.13790591  1
  C  C92  1  0.50000000  0.71365198  0.47355893  1
  C  C93  1  0.50000000  0.71040780  0.80516046  1
  C  C94  1  0.50000000  0.28173793  0.19374773  1
  C  C95  1  0.50000000  0.28833396  0.52885670  1
  C  C96  1  0.50000000  0.28968102  0.86090352  1
  C  C97  1  0.50000000  0.34166545  0.19578015  1
  C  C98  1  0.50000000  0.34893517  0.52625474  1
  C  C99  1  0.50000000  0.34958541  0.86073539  1
  C  C100  1  0.50000000  0.41069791  0.53413373  1
  C  C101  1  0.50000000  0.40940602  0.85957043  1
  C  C102  1  0.50000000  0.46991996  0.53371866  1
  C  C103  1  0.50000000  0.46997498  0.85818607  1
  C  C104  1  0.50000000  0.53008005  0.53371866  1
  C  C105  1  0.50000000  0.53002503  0.85818607  1
  C  C106  1  0.50000000  0.58930210  0.53413373  1
  C  C107  1  0.50000000  0.59059400  0.85957044  1
  C  C108  1  0.50000000  0.65833457  0.19578015  1
  C  C109  1  0.50000000  0.65106485  0.52625473  1
  C  C110  1  0.50000000  0.65041461  0.86073539  1
  C  C111  1  0.50000000  0.71826209  0.19374773  1
  C  C112  1  0.50000000  0.71166606  0.52885670  1
  C  C113  1  0.50000000  0.71031899  0.86090352  1
  C  C114  1  0.50000000  0.25258747  0.22349207  1
  C  C115  1  0.50000000  0.25940185  0.55857040  1
  C  C116  1  0.50000000  0.25995426  0.88865684  1
  C  C117  1  0.50000000  0.31141859  0.22245225  1
  C  C118  1  0.50000000  0.31911875  0.55515705  1
  C  C119  1  0.50000000  0.31933053  0.88896999  1
  C  C120  1  0.50000000  0.37121624  0.22397463  1
  C  C121  1  0.50000000  0.37981102  0.55582105  1
  C  C122  1  0.50000000  0.37942387  0.88806318  1
  C  C123  1  0.50000000  0.44048562  0.56073177  1
  C  C124  1  0.50000000  0.44000883  0.88486436  1
  C  C125  1  0.50000000  0.50000001  0.55946675  1
  C  C126  1  0.50000000  0.50000001  0.88536528  1
  C  C127  1  0.50000000  0.55951440  0.56073177  1
  C  C128  1  0.50000000  0.55999118  0.88486436  1
  C  C129  1  0.50000000  0.62878378  0.22397463  1
  C  C130  1  0.50000000  0.62018900  0.55582104  1
  C  C131  1  0.50000000  0.62057615  0.88806318  1
  C  C132  1  0.50000000  0.68858142  0.22245225  1
  C  C133  1  0.50000000  0.68088127  0.55515705  1
  C  C134  1  0.50000000  0.68066948  0.88896999  1
  C  C135  1  0.50000000  0.74741255  0.22349207  1
  C  C136  1  0.50000000  0.74059816  0.55857040  1
  C  C137  1  0.50000000  0.74004575  0.88865684  1
  C  C138  1  0.50000000  0.25260059  0.27669517  1
  C  C139  1  0.50000000  0.25988383  0.61117603  1
  C  C140  1  0.50000000  0.25942296  0.94125209  1
  C  C141  1  0.50000000  0.31142627  0.27765862  1
  C  C142  1  0.50000000  0.31930446  0.61093564  1
  C  C143  1  0.50000000  0.31913479  0.94479473  1
  C  C144  1  0.50000000  0.37121794  0.27625098  1
  C  C145  1  0.50000000  0.37939734  0.61187449  1
  C  C146  1  0.50000000  0.37983257  0.94413406  1
  C  C147  1  0.50000000  0.44001545  0.61511400  1
  C  C148  1  0.50000000  0.44049090  0.93927099  1
  C  C149  1  0.50000000  0.50000001  0.61466485  1
  C  C150  1  0.50000000  0.50000001  0.94058439  1
  C  C151  1  0.50000000  0.55998457  0.61511400  1
  C  C152  1  0.50000000  0.55950911  0.93927100  1
  C  C153  1  0.50000000  0.62878208  0.27625098  1
  C  C154  1  0.50000000  0.62060268  0.61187449  1
  C  C155  1  0.50000000  0.62016745  0.94413406  1
  C  C156  1  0.50000000  0.68857375  0.27765862  1
  C  C157  1  0.50000000  0.68069556  0.61093564  1
  C  C158  1  0.50000000  0.68086523  0.94479473  1
  C  C159  1  0.50000000  0.74739943  0.27669516  1
  C  C160  1  0.50000000  0.74011619  0.61117603  1
  C  C161  1  0.50000000  0.74057706  0.94125209  1
  H  H162  1  0.50000000  0.23339264  0.03215425  1
  H  H163  1  0.50000000  0.23018785  0.37574784  1
  H  H164  1  0.50000000  0.23684264  0.70384718  1
  H  H165  1  0.50000000  0.76660738  0.03215425  1
  H  H166  1  0.50000000  0.76981217  0.37574784  1
  H  H167  1  0.50000000  0.76315738  0.70384718  1
  H  H168  1  0.50000000  0.23018441  0.12443494  1
  H  H169  1  0.50000000  0.23333056  0.46767695  1
  H  H170  1  0.50000000  0.23678370  0.79571143  1
  H  H171  1  0.50000000  0.76981561  0.12443494  1
  H  H172  1  0.50000000  0.76666946  0.46767695  1
  H  H173  1  0.50000000  0.76321632  0.79571143  1
  H  H174  1  0.50000000  0.22900878  0.20403044  1
  H  H175  1  0.50000000  0.23585819  0.53913005  1
  H  H176  1  0.50000000  0.23668730  0.86842189  1
  H  H177  1  0.50000000  0.77099124  0.20403044  1
  H  H178  1  0.50000000  0.76414183  0.53913006  1
  H  H179  1  0.50000000  0.76331271  0.86842189  1
  H  H180  1  0.50000000  0.22906997  0.29630798  1
  H  H181  1  0.50000000  0.23665269  0.63156467  1
  H  H182  1  0.50000000  0.23576140  0.96024913  1
  H  H183  1  0.50000000  0.77093005  0.29630797  1
  H  H184  1  0.50000000  0.76334732  0.63156468  1
  H  H185  1  0.50000000  0.76423862  0.96024913  1
  H  H186  1  0.50000000  0.41494540  0.00623190  1
  H  H187  1  0.50000000  0.46953305  0.00845493  1
  H  H188  1  0.50000000  0.53046696  0.00845493  1
  H  H189  1  0.50000000  0.58505461  0.00623190  1
  H  H190  1  0.50000000  0.39869099  0.05011562  1
  H  H191  1  0.50000000  0.39504762  0.36410397  1
  H  H192  1  0.50000000  0.60130903  0.05011562  1
  H  H193  1  0.50000000  0.60495241  0.36410397  1
  H  H194  1  0.50000000  0.39498457  0.13616117  1
  H  H195  1  0.50000000  0.39861091  0.45016408  1
  H  H196  1  0.50000000  0.60501545  0.13616117  1
  H  H197  1  0.50000000  0.60138911  0.45016408  1
  H  H198  1  0.50000000  0.41501229  0.49366995  1
  H  H199  1  0.50000000  0.46953259  0.49167328  1
  H  H200  1  0.50000000  0.53046742  0.49167328  1
  H  H201  1  0.50000000  0.58498773  0.49366995  1
  H  H202  1  0.50000000  0.39466956  0.20443595  1
  H  H203  1  0.50000000  0.60533046  0.20443596  1
  H  H204  1  0.50000000  0.39459457  0.29598475  1
  H  H205  1  0.50000000  0.60540545  0.29598475  1
