# generated using pymatgen
data_H7C36
_symmetry_space_group_name_H-M   'P 1'
_cell_length_a   20.00000000
_cell_length_b   37.22700000
_cell_length_c   25.89716894
_cell_angle_alpha   90.00000000
_cell_angle_beta   90.00000000
_cell_angle_gamma   90.00000000
_symmetry_Int_Tables_number   1
_chemical_formula_structural   H7C36
_chemical_formula_sum   'H28 C144'
_cell_volume   19281.47816181
_cell_formula_units_Z   4
loop_
 _symmetry_equiv_pos_site_id
 _symmetry_equiv_pos_as_xyz
  1  'x, y, z'
loop_
 _atom_site_type_symbol
 _atom_site_label
 _atom_site_symmetry_multiplicity
 _atom_site_fract_x
 _atom_site_fract_y
 _atom_site_fract_z
 _atom_site_occupancy
  C  C0  1  0.50000000  0.31628845  0.55525543  1
  C  C1  1  0.50000000  0.31749004  0.88800959  1
  C  C2  1  0.50000000  0.38275093  0.22193887  1
  C  C3  1  0.50000000  0.38414807  0.55602414  1
  C  C4  1  0.50000000  0.38432435  0.88853313  1
  C  C5  1  0.50000000  0.44901706  0.22234814  1
  C  C6  1  0.50000000  0.45061455  0.55587674  1
  C  C7  1  0.50000000  0.45063450  0.88887811  1
  C  C8  1  0.50000000  0.51493764  0.22221569  1
  C  C9  1  0.50000000  0.51710646  0.55531521  1
  C  C10  1  0.50000000  0.51698049  0.88908685  1
  C  C11  1  0.50000000  0.58086192  0.22244617  1
  C  C12  1  0.50000000  0.58436323  0.55461707  1
  C  C13  1  0.50000000  0.58369023  0.88931912  1
  C  C14  1  0.50000000  0.64661171  0.22354805  1
  C  C15  1  0.50000000  0.65161773  0.55615118  1
  C  C16  1  0.50000000  0.65024300  0.88835495  1
  C  C17  1  0.50000000  0.71828424  0.56344059  1
  C  C18  1  0.50000000  0.71666705  0.88372194  1
  C  C19  1  0.50000000  0.31750869  0.61199355  1
  C  C20  1  0.50000000  0.31627546  0.94474682  1
  C  C21  1  0.50000000  0.38277221  0.27805550  1
  C  C22  1  0.50000000  0.38434025  0.61147617  1
  C  C23  1  0.50000000  0.38412569  0.94398524  1
  C  C24  1  0.50000000  0.44903167  0.27766960  1
  C  C25  1  0.50000000  0.45065061  0.61110017  1
  C  C26  1  0.50000000  0.45058381  0.94410335  1
  C  C27  1  0.50000000  0.51494758  0.27776933  1
  C  C28  1  0.50000000  0.51700275  0.61088340  1
  C  C29  1  0.50000000  0.51707249  0.94465157  1
  C  C30  1  0.50000000  0.58087091  0.27749200  1
  C  C31  1  0.50000000  0.58370506  0.61065079  1
  C  C32  1  0.50000000  0.58433242  0.94534500  1
  C  C33  1  0.50000000  0.64661383  0.27636739  1
  C  C34  1  0.50000000  0.65024988  0.61164539  1
  C  C35  1  0.50000000  0.65159343  0.94384621  1
  C  C36  1  0.50000000  0.71666871  0.61633687  1
  C  C37  1  0.50000000  0.71826139  0.93662310  1
  C  C38  1  0.50000000  0.28552180  0.64062529  1
  C  C39  1  0.50000000  0.28451390  0.97091129  1
  C  C40  1  0.50000000  0.35058268  0.30726227  1
  C  C41  1  0.50000000  0.35074474  0.63912354  1
  C  C42  1  0.50000000  0.35104704  0.97209412  1
  C  C43  1  0.50000000  0.41587886  0.30570169  1
  C  C44  1  0.50000000  0.41725036  0.63892358  1
  C  C45  1  0.50000000  0.41719232  0.97184718  1
  C  C46  1  0.50000000  0.48209540  0.30564597  1
  C  C47  1  0.50000000  0.48393785  0.63870696  1
  C  C48  1  0.50000000  0.48373661  0.97210130  1
  C  C49  1  0.50000000  0.54797275  0.30570310  1
  C  C50  1  0.50000000  0.55041347  0.63851216  1
  C  C51  1  0.50000000  0.55041502  0.97264919  1
  C  C52  1  0.50000000  0.61391292  0.30425289  1
  C  C53  1  0.50000000  0.61655344  0.63881829  1
  C  C54  1  0.50000000  0.61764209  0.97307608  1
  C  C55  1  0.50000000  0.68303688  0.64051220  1
  C  C56  1  0.50000000  0.68676145  0.96494140  1
  C  C57  1  0.50000000  0.28555000  0.69391847  1
  C  C58  1  0.50000000  0.35203648  0.02572716  1
  C  C59  1  0.50000000  0.35083291  0.36057540  1
  C  C60  1  0.50000000  0.35092008  0.69448128  1
  C  C61  1  0.50000000  0.41709792  0.02724446  1
  C  C62  1  0.50000000  0.41614035  0.36136408  1
  C  C63  1  0.50000000  0.41732222  0.69467073  1
  C  C64  1  0.50000000  0.48328843  0.02767337  1
  C  C65  1  0.50000000  0.48237863  0.36129210  1
  C  C66  1  0.50000000  0.48387898  0.69443496  1
  C  C67  1  0.50000000  0.54950015  0.02786086  1
  C  C68  1  0.50000000  0.54828004  0.36082399  1
  C  C69  1  0.50000000  0.55015925  0.69407056  1
  C  C70  1  0.50000000  0.61601416  0.02902878  1
  C  C71  1  0.50000000  0.61382403  0.35929886  1
  C  C72  1  0.50000000  0.61606622  0.69422854  1
  C  C73  1  0.50000000  0.68221001  0.69590145  1
  C  C74  1  0.50000000  0.31782078  0.72206595  1
  C  C75  1  0.50000000  0.38388454  0.05460016  1
  C  C76  1  0.50000000  0.38326238  0.38929315  1
  C  C77  1  0.50000000  0.38428971  0.72228649  1
  C  C78  1  0.50000000  0.45005490  0.05541440  1
  C  C79  1  0.50000000  0.44950574  0.38931664  1
  C  C80  1  0.50000000  0.45058404  0.72228361  1
  C  C81  1  0.50000000  0.51611087  0.05554442  1
  C  C82  1  0.50000000  0.51546583  0.38892838  1
  C  C83  1  0.50000000  0.51689910  0.72209998  1
  C  C84  1  0.50000000  0.58241511  0.05599158  1
  C  C85  1  0.50000000  0.58156761  0.38830286  1
  C  C86  1  0.50000000  0.58316837  0.72203931  1
  C  C87  1  0.50000000  0.64682048  0.06115928  1
  C  C88  1  0.50000000  0.64631508  0.38630795  1
  C  C89  1  0.50000000  0.64911975  0.72247588  1
  C  C90  1  0.50000000  0.71461521  0.72366382  1
  C  C91  1  0.50000000  0.31781629  0.77795914  1
  C  C92  1  0.50000000  0.38324744  0.11071965  1
  C  C93  1  0.50000000  0.38389095  0.44540609  1
  C  C94  1  0.50000000  0.38428321  0.77771900  1
  C  C95  1  0.50000000  0.44947894  0.11067477  1
  C  C96  1  0.50000000  0.45007201  0.44458150  1
  C  C97  1  0.50000000  0.45057879  0.77769899  1
  C  C98  1  0.50000000  0.51542335  0.11103318  1
  C  C99  1  0.50000000  0.51612546  0.44438649  1
  C  C100  1  0.50000000  0.51689406  0.77787577  1
  C  C101  1  0.50000000  0.58152791  0.11165304  1
  C  C102  1  0.50000000  0.58245623  0.44396631  1
  C  C103  1  0.50000000  0.58316453  0.77795307  1
  C  C104  1  0.50000000  0.64627823  0.11362870  1
  C  C105  1  0.50000000  0.64687234  0.43878806  1
  C  C106  1  0.50000000  0.64912315  0.77753633  1
  C  C107  1  0.50000000  0.71462478  0.77637072  1
  C  C108  1  0.50000000  0.28552958  0.80609070  1
  C  C109  1  0.50000000  0.35081350  0.13944619  1
  C  C110  1  0.50000000  0.35204484  0.47428656  1
  C  C111  1  0.50000000  0.35091386  0.80554710  1
  C  C112  1  0.50000000  0.41612246  0.13865580  1
  C  C113  1  0.50000000  0.41710856  0.47274839  1
  C  C114  1  0.50000000  0.41732082  0.80532755  1
  C  C115  1  0.50000000  0.48233614  0.13872671  1
  C  C116  1  0.50000000  0.48331206  0.47229350  1
  C  C117  1  0.50000000  0.48387132  0.80554155  1
  C  C118  1  0.50000000  0.54824000  0.13913353  1
  C  C119  1  0.50000000  0.54952972  0.47208875  1
  C  C120  1  0.50000000  0.55014918  0.80591075  1
  C  C121  1  0.50000000  0.61379248  0.14064574  1
  C  C122  1  0.50000000  0.61606197  0.47092761  1
  C  C123  1  0.50000000  0.61606531  0.80576802  1
  C  C124  1  0.50000000  0.68221617  0.80412365  1
  C  C125  1  0.50000000  0.28448494  0.52918809  1
  C  C126  1  0.50000000  0.28549322  0.85939290  1
  C  C127  1  0.50000000  0.35055466  0.19274834  1
  C  C128  1  0.50000000  0.35106673  0.52791814  1
  C  C129  1  0.50000000  0.35073202  0.86088485  1
  C  C130  1  0.50000000  0.41585975  0.19431884  1
  C  C131  1  0.50000000  0.41721583  0.52814627  1
  C  C132  1  0.50000000  0.41723687  0.86106984  1
  C  C133  1  0.50000000  0.48207961  0.19434915  1
  C  C134  1  0.50000000  0.48376655  0.52785847  1
  C  C135  1  0.50000000  0.48391794  0.86126346  1
  C  C136  1  0.50000000  0.54795184  0.19425540  1
  C  C137  1  0.50000000  0.55044822  0.52730199  1
  C  C138  1  0.50000000  0.55039649  0.86146413  1
  C  C139  1  0.50000000  0.61390004  0.19568172  1
  C  C140  1  0.50000000  0.61767795  0.52688887  1
  C  C141  1  0.50000000  0.61654955  0.86116956  1
  C  C142  1  0.50000000  0.68679636  0.53507800  1
  C  C143  1  0.50000000  0.68304083  0.85951411  1
  H  H144  1  0.50000000  0.74407890  0.54314285  1
  H  H145  1  0.50000000  0.74161606  0.86186670  1
  H  H146  1  0.50000000  0.74158650  0.63826900  1
  H  H147  1  0.50000000  0.74402996  0.95699107  1
  H  H148  1  0.50000000  0.25960348  0.62091274  1
  H  H149  1  0.50000000  0.25848324  0.95149937  1
  H  H150  1  0.50000000  0.25967629  0.71377167  1
  H  H151  1  0.50000000  0.74046571  0.70406639  1
  H  H152  1  0.50000000  0.74048079  0.79596580  1
  H  H153  1  0.50000000  0.25967218  0.78619362  1
  H  H154  1  0.50000000  0.25852645  0.54880188  1
  H  H155  1  0.50000000  0.25959880  0.87917965  1
  H  H156  1  0.50000000  0.67231764  0.20329941  1
  H  H157  1  0.50000000  0.67231977  0.29660893  1
  H  H158  1  0.50000000  0.28316970  0.01305914  1
  H  H159  1  0.50000000  0.32452288  0.28776393  1
  H  H160  1  0.50000000  0.69289693  0.00523019  1
  H  H161  1  0.50000000  0.32664600  0.04652426  1
  H  H162  1  0.50000000  0.32486654  0.38032183  1
  H  H163  1  0.50000000  0.67341374  0.04622091  1
  H  H164  1  0.50000000  0.67213988  0.36640813  1
  H  H165  1  0.50000000  0.67211712  0.13349028  1
  H  H166  1  0.50000000  0.67347310  0.45371841  1
  H  H167  1  0.50000000  0.32484480  0.11970173  1
  H  H168  1  0.50000000  0.32662494  0.45356612  1
  H  H169  1  0.50000000  0.28297318  0.48704728  1
  H  H170  1  0.50000000  0.32451251  0.21228008  1
  H  H171  1  0.50000000  0.69293240  0.49478827  1
