# generated using pymatgen
data_HC4
_symmetry_space_group_name_H-M   'P 1'
_cell_length_a   10.00000000
_cell_length_b   41.10890000
_cell_length_c   25.96150384
_cell_angle_alpha   90.00000000
_cell_angle_beta   90.00000000
_cell_angle_gamma   90.00000000
_symmetry_Int_Tables_number   1
_chemical_formula_structural   HC4
_chemical_formula_sum   'H42 C168'
_cell_volume   10672.48865297
_cell_formula_units_Z   42
loop_
 _symmetry_equiv_pos_site_id
 _symmetry_equiv_pos_as_xyz
  1  'x, y, z'
loop_
 _atom_site_type_symbol
 _atom_site_label
 _atom_site_symmetry_multiplicity
 _atom_site_fract_x
 _atom_site_fract_y
 _atom_site_fract_z
 _atom_site_occupancy
  C  C0  1  0.50000000  0.28955038  0.30513812  1
  C  C1  1  0.50000000  0.28800094  0.63843777  1
  C  C2  1  0.50000000  0.28834774  0.97215425  1
  C  C3  1  0.50000000  0.34968584  0.30573122  1
  C  C4  1  0.50000000  0.34817114  0.63915631  1
  C  C5  1  0.50000000  0.34843500  0.97194207  1
  C  C6  1  0.50000000  0.40868206  0.30717874  1
  C  C7  1  0.50000000  0.40808591  0.63947358  1
  C  C8  1  0.50000000  0.40812621  0.97142105  1
  C  C9  1  0.50000000  0.46812611  0.64022837  1
  C  C10  1  0.50000000  0.46863933  0.96829965  1
  C  C11  1  0.50000000  0.52827921  0.64139542  1
  C  C12  1  0.50000000  0.52859531  0.96727783  1
  C  C13  1  0.50000000  0.58893979  0.64014274  1
  C  C14  1  0.50000000  0.58781713  0.96637360  1
  C  C15  1  0.50000000  0.65733506  0.30422584  1
  C  C16  1  0.50000000  0.64879701  0.63909882  1
  C  C17  1  0.50000000  0.64961856  0.97390172  1
  C  C18  1  0.50000000  0.71728347  0.30641467  1
  C  C19  1  0.50000000  0.70867897  0.63909730  1
  C  C20  1  0.50000000  0.71029882  0.97101880  1
  C  C21  1  0.50000000  0.28860503  0.02822079  1
  C  C22  1  0.50000000  0.28938915  0.36122102  1
  C  C23  1  0.50000000  0.28787891  0.69454391  1
  C  C24  1  0.50000000  0.34859018  0.02714110  1
  C  C25  1  0.50000000  0.34952316  0.36124176  1
  C  C26  1  0.50000000  0.34802707  0.69449766  1
  C  C27  1  0.50000000  0.40750837  0.02541054  1
  C  C28  1  0.50000000  0.40849783  0.36056990  1
  C  C29  1  0.50000000  0.40793820  0.69463760  1
  C  C30  1  0.50000000  0.46801290  0.69530113  1
  C  C31  1  0.50000000  0.52838228  0.69603829  1
  C  C32  1  0.50000000  0.58889893  0.69516370  1
  C  C33  1  0.50000000  0.65202478  0.02942915  1
  C  C34  1  0.50000000  0.65670144  0.35868326  1
  C  C35  1  0.50000000  0.64875150  0.69433401  1
  C  C36  1  0.50000000  0.71229365  0.02636386  1
  C  C37  1  0.50000000  0.71623769  0.36228130  1
  C  C38  1  0.50000000  0.70865137  0.69486054  1
  C  C39  1  0.50000000  0.25955823  0.05730231  1
  C  C40  1  0.50000000  0.25998691  0.38945697  1
  C  C41  1  0.50000000  0.25870084  0.72324604  1
  C  C42  1  0.50000000  0.31865596  0.05545325  1
  C  C43  1  0.50000000  0.31913115  0.38900745  1
  C  C44  1  0.50000000  0.31786081  0.72223156  1
  C  C45  1  0.50000000  0.37878646  0.05424688  1
  C  C46  1  0.50000000  0.37928154  0.38917989  1
  C  C47  1  0.50000000  0.37790066  0.72220941  1
  C  C48  1  0.50000000  0.43798643  0.72245086  1
  C  C49  1  0.50000000  0.49812738  0.72267074  1
  C  C50  1  0.50000000  0.55867341  0.72259223  1
  C  C51  1  0.50000000  0.62475650  0.06332020  1
  C  C52  1  0.50000000  0.62675066  0.38463820  1
  C  C53  1  0.50000000  0.61888584  0.72235474  1
  C  C54  1  0.50000000  0.68319218  0.05567137  1
  C  C55  1  0.50000000  0.68556179  0.38871358  1
  C  C56  1  0.50000000  0.67872315  0.72234251  1
  C  C57  1  0.50000000  0.74252076  0.05339693  1
  C  C58  1  0.50000000  0.74456922  0.39365059  1
  C  C59  1  0.50000000  0.73793176  0.72348142  1
  C  C60  1  0.50000000  0.25990336  0.11050274  1
  C  C61  1  0.50000000  0.25964340  0.44264504  1
  C  C62  1  0.50000000  0.25869964  0.77661398  1
  C  C63  1  0.50000000  0.31904539  0.11092122  1
  C  C64  1  0.50000000  0.31872580  0.44446301  1
  C  C65  1  0.50000000  0.31784426  0.77770889  1
  C  C66  1  0.50000000  0.37921502  0.11072543  1
  C  C67  1  0.50000000  0.37885318  0.44567123  1
  C  C68  1  0.50000000  0.37787619  0.77777133  1
  C  C69  1  0.50000000  0.43798559  0.77755867  1
  C  C70  1  0.50000000  0.49813481  0.77730790  1
  C  C71  1  0.50000000  0.55867391  0.77741270  1
  C  C72  1  0.50000000  0.62672130  0.11548584  1
  C  C73  1  0.50000000  0.62480136  0.43679749  1
  C  C74  1  0.50000000  0.61887863  0.77764242  1
  C  C75  1  0.50000000  0.68552944  0.11139545  1
  C  C76  1  0.50000000  0.68325879  0.44442518  1
  C  C77  1  0.50000000  0.67870712  0.77768570  1
  C  C78  1  0.50000000  0.74454516  0.10641396  1
  C  C79  1  0.50000000  0.74256750  0.44666008  1
  C  C80  1  0.50000000  0.73792076  0.77656761  1
  C  C81  1  0.50000000  0.28930757  0.13873427  1
  C  C82  1  0.50000000  0.28868642  0.47171338  1
  C  C83  1  0.50000000  0.28785655  0.80535578  1
  C  C84  1  0.50000000  0.34945082  0.13866360  1
  C  C85  1  0.50000000  0.34865922  0.47277852  1
  C  C86  1  0.50000000  0.34799200  0.80546813  1
  C  C87  1  0.50000000  0.40843748  0.13933395  1
  C  C88  1  0.50000000  0.40756949  0.47454758  1
  C  C89  1  0.50000000  0.40791991  0.80534462  1
  C  C90  1  0.50000000  0.46802713  0.80470157  1
  C  C91  1  0.50000000  0.52838095  0.80398373  1
  C  C92  1  0.50000000  0.58889793  0.80484995  1
  C  C93  1  0.50000000  0.65667394  0.14145097  1
  C  C94  1  0.50000000  0.65208697  0.47062217  1
  C  C95  1  0.50000000  0.64873449  0.80568557  1
  C  C96  1  0.50000000  0.71622510  0.13779575  1
  C  C97  1  0.50000000  0.71235725  0.47370859  1
  C  C98  1  0.50000000  0.70863877  0.80517014  1
  C  C99  1  0.50000000  0.28952206  0.19482705  1
  C  C100  1  0.50000000  0.28842502  0.52776075  1
  C  C101  1  0.50000000  0.28795873  0.86147572  1
  C  C102  1  0.50000000  0.34963892  0.19418158  1
  C  C103  1  0.50000000  0.34848522  0.52799657  1
  C  C104  1  0.50000000  0.34814448  0.86079485  1
  C  C105  1  0.50000000  0.40862549  0.19273122  1
  C  C106  1  0.50000000  0.40816091  0.52854581  1
  C  C107  1  0.50000000  0.40808163  0.86050774  1
  C  C108  1  0.50000000  0.46866581  0.53173926  1
  C  C109  1  0.50000000  0.46811355  0.85980169  1
  C  C110  1  0.50000000  0.52859231  0.53279718  1
  C  C111  1  0.50000000  0.52825980  0.85864331  1
  C  C112  1  0.50000000  0.58781226  0.53362791  1
  C  C113  1  0.50000000  0.58894736  0.85988093  1
  C  C114  1  0.50000000  0.65730259  0.19591660  1
  C  C115  1  0.50000000  0.64963829  0.52612153  1
  C  C116  1  0.50000000  0.64879591  0.86093146  1
  C  C117  1  0.50000000  0.71725746  0.19369420  1
  C  C118  1  0.50000000  0.71032393  0.52902522  1
  C  C119  1  0.50000000  0.70868369  0.86091032  1
  C  C120  1  0.50000000  0.26033748  0.22339510  1
  C  C121  1  0.50000000  0.25910307  0.55614693  1
  C  C122  1  0.50000000  0.25884089  0.89048330  1
  C  C123  1  0.50000000  0.31945774  0.22226404  1
  C  C124  1  0.50000000  0.31821887  0.55569585  1
  C  C125  1  0.50000000  0.31798597  0.88879946  1
  C  C126  1  0.50000000  0.37958622  0.22177365  1
  C  C127  1  0.50000000  0.37824384  0.55612119  1
  C  C128  1  0.50000000  0.37802930  0.88824220  1
  C  C129  1  0.50000000  0.43882511  0.55689236  1
  C  C130  1  0.50000000  0.43825602  0.88772630  1
  C  C131  1  0.50000000  0.49857505  0.55854100  1
  C  C132  1  0.50000000  0.49836298  0.88629271  1
  C  C133  1  0.50000000  0.55799054  0.56015671  1
  C  C134  1  0.50000000  0.55828223  0.88530973  1
  C  C135  1  0.50000000  0.62768169  0.22390465  1
  C  C136  1  0.50000000  0.61865920  0.55548895  1
  C  C137  1  0.50000000  0.61897694  0.88835446  1
  C  C138  1  0.50000000  0.68759198  0.22244173  1
  C  C139  1  0.50000000  0.67943770  0.55515070  1
  C  C140  1  0.50000000  0.67908006  0.88897881  1
  C  C141  1  0.50000000  0.74650035  0.22334483  1
  C  C142  1  0.50000000  0.73923060  0.55887235  1
  C  C143  1  0.50000000  0.73849594  0.88846256  1
  C  C144  1  0.50000000  0.26034327  0.27658975  1
  C  C145  1  0.50000000  0.25889587  0.60939651  1
  C  C146  1  0.50000000  0.25902574  0.94374246  1
  C  C147  1  0.50000000  0.31947902  0.27767022  1
  C  C148  1  0.50000000  0.31803549  0.61112177  1
  C  C149  1  0.50000000  0.31815222  0.94423637  1
  C  C150  1  0.50000000  0.37962925  0.27814376  1
  C  C151  1  0.50000000  0.37804025  0.61172014  1
  C  C152  1  0.50000000  0.37821571  0.94382375  1
  C  C153  1  0.50000000  0.43827507  0.61229736  1
  C  C154  1  0.50000000  0.43880614  0.94312312  1
  C  C155  1  0.50000000  0.49838173  0.61376260  1
  C  C156  1  0.50000000  0.49856736  0.94153053  1
  C  C157  1  0.50000000  0.55829086  0.61471552  1
  C  C158  1  0.50000000  0.55798786  0.93988230  1
  C  C159  1  0.50000000  0.62770474  0.27626015  1
  C  C160  1  0.50000000  0.61896660  0.61168251  1
  C  C161  1  0.50000000  0.61866765  0.94451158  1
  C  C162  1  0.50000000  0.68762030  0.27770592  1
  C  C163  1  0.50000000  0.67907827  0.61100517  1
  C  C164  1  0.50000000  0.67942407  0.94485545  1
  C  C165  1  0.50000000  0.74651340  0.27674791  1
  C  C166  1  0.50000000  0.73851222  0.61158533  1
  C  C167  1  0.50000000  0.73920474  0.94118079  1
  H  H168  1  0.50000000  0.23599804  0.03780025  1
  H  H169  1  0.50000000  0.23663101  0.36930914  1
  H  H170  1  0.50000000  0.23523042  0.70336548  1
  H  H171  1  0.50000000  0.76523172  0.03153708  1
  H  H172  1  0.50000000  0.76869327  0.37580785  1
  H  H173  1  0.50000000  0.76140435  0.70373021  1
  H  H174  1  0.50000000  0.23655520  0.13065588  1
  H  H175  1  0.50000000  0.23606354  0.46210480  1
  H  H176  1  0.50000000  0.23522750  0.79646681  1
  H  H177  1  0.50000000  0.76866711  0.12425046  1
  H  H178  1  0.50000000  0.76530811  0.46842021  1
  H  H179  1  0.50000000  0.76142306  0.79621039  1
  H  H180  1  0.50000000  0.23691036  0.20351134  1
  H  H181  1  0.50000000  0.23575138  0.53602204  1
  H  H182  1  0.50000000  0.23528242  0.87095088  1
  H  H183  1  0.50000000  0.77002376  0.20357677  1
  H  H184  1  0.50000000  0.76297392  0.53996813  1
  H  H185  1  0.50000000  0.76163611  0.86791400  1
  H  H186  1  0.50000000  0.23690321  0.29644637  1
  H  H187  1  0.50000000  0.23533146  0.62891434  1
  H  H188  1  0.50000000  0.23568197  0.96389203  1
  H  H189  1  0.50000000  0.77003621  0.29650959  1
  H  H190  1  0.50000000  0.76165505  0.63216807  1
  H  H191  1  0.50000000  0.76293894  0.96012820  1
  H  H192  1  0.50000000  0.43225224  0.28768153  1
  H  H193  1  0.50000000  0.46984550  0.01036476  1
  H  H194  1  0.50000000  0.52921619  0.00953943  1
  H  H195  1  0.50000000  0.58363261  0.00697321  1
  H  H196  1  0.50000000  0.43061795  0.04597032  1
  H  H197  1  0.50000000  0.43199336  0.38032863  1
  H  H198  1  0.50000000  0.60004723  0.05055342  1
  H  H199  1  0.50000000  0.60390024  0.36336955  1
  H  H200  1  0.50000000  0.60384653  0.13669726  1
  H  H201  1  0.50000000  0.60009917  0.44959179  1
  H  H202  1  0.50000000  0.43194324  0.11957486  1
  H  H203  1  0.50000000  0.43068981  0.45401068  1
  H  H204  1  0.50000000  0.43220931  0.21222195  1
  H  H205  1  0.50000000  0.46988495  0.48966862  1
  H  H206  1  0.50000000  0.52916880  0.49053688  1
  H  H207  1  0.50000000  0.58354132  0.49301605  1
  H  H208  1  0.50000000  0.60426704  0.20419044  1
  H  H209  1  0.50000000  0.60430852  0.29605447  1
