# generated using pymatgen
data_H5C28
_symmetry_space_group_name_H-M   'P 1'
_cell_length_a   10.00000000
_cell_length_b   41.10890000
_cell_length_c   25.97305612
_cell_angle_alpha   90.00000000
_cell_angle_beta   90.00000000
_cell_angle_gamma   90.00000000
_symmetry_Int_Tables_number   1
_chemical_formula_structural   H5C28
_chemical_formula_sum   'H30 C168'
_cell_volume   10677.23766898
_cell_formula_units_Z   6
loop_
 _symmetry_equiv_pos_site_id
 _symmetry_equiv_pos_as_xyz
  1  'x, y, z'
loop_
 _atom_site_type_symbol
 _atom_site_label
 _atom_site_symmetry_multiplicity
 _atom_site_fract_x
 _atom_site_fract_y
 _atom_site_fract_z
 _atom_site_occupancy
  C  C0  1  0.50000000  0.28805895  0.64074080  1
  C  C1  1  0.50000000  0.28880649  0.96770437  1
  C  C2  1  0.50000000  0.34920228  0.64061423  1
  C  C3  1  0.50000000  0.34791300  0.96495080  1
  C  C4  1  0.50000000  0.41127851  0.30437352  1
  C  C5  1  0.50000000  0.40946858  0.63944392  1
  C  C6  1  0.50000000  0.40899298  0.97279479  1
  C  C7  1  0.50000000  0.47077363  0.30584925  1
  C  C8  1  0.50000000  0.46948898  0.63858778  1
  C  C9  1  0.50000000  0.46958368  0.97242115  1
  C  C10  1  0.50000000  0.53009056  0.30581686  1
  C  C11  1  0.50000000  0.52996527  0.63865994  1
  C  C12  1  0.50000000  0.53008285  0.97205874  1
  C  C13  1  0.50000000  0.58942822  0.30584636  1
  C  C14  1  0.50000000  0.59036889  0.63862746  1
  C  C15  1  0.50000000  0.59061035  0.97241736  1
  C  C16  1  0.50000000  0.64895876  0.30447520  1
  C  C17  1  0.50000000  0.65029300  0.63917234  1
  C  C18  1  0.50000000  0.65153695  0.97279556  1
  C  C19  1  0.50000000  0.71051750  0.64083183  1
  C  C20  1  0.50000000  0.71393993  0.96425006  1
  C  C21  1  0.50000000  0.28849960  0.69607064  1
  C  C22  1  0.50000000  0.34936995  0.69548216  1
  C  C23  1  0.50000000  0.40970739  0.02862582  1
  C  C24  1  0.50000000  0.41165931  0.35918745  1
  C  C25  1  0.50000000  0.40956409  0.69463278  1
  C  C26  1  0.50000000  0.47001036  0.02766381  1
  C  C27  1  0.50000000  0.47071809  0.36102741  1
  C  C28  1  0.50000000  0.46959861  0.69432644  1
  C  C29  1  0.50000000  0.53008299  0.02745704  1
  C  C30  1  0.50000000  0.53007984  0.36129951  1
  C  C31  1  0.50000000  0.52989755  0.69450141  1
  C  C32  1  0.50000000  0.59014838  0.02762449  1
  C  C33  1  0.50000000  0.58949685  0.36103562  1
  C  C34  1  0.50000000  0.59005834  0.69412756  1
  C  C35  1  0.50000000  0.65044819  0.02864892  1
  C  C36  1  0.50000000  0.64867032  0.35944997  1
  C  C37  1  0.50000000  0.64980426  0.69432760  1
  C  C38  1  0.50000000  0.70973221  0.69603926  1
  C  C39  1  0.50000000  0.25912804  0.72357205  1
  C  C40  1  0.50000000  0.31887389  0.72260046  1
  C  C41  1  0.50000000  0.38184314  0.06144577  1
  C  C42  1  0.50000000  0.38239265  0.38628003  1
  C  C43  1  0.50000000  0.37941775  0.72236500  1
  C  C44  1  0.50000000  0.44012270  0.05579774  1
  C  C45  1  0.50000000  0.44076722  0.38853846  1
  C  C46  1  0.50000000  0.43970994  0.72224665  1
  C  C47  1  0.50000000  0.50017775  0.05540517  1
  C  C48  1  0.50000000  0.50035195  0.38932291  1
  C  C49  1  0.50000000  0.49977314  0.72226858  1
  C  C50  1  0.50000000  0.55999518  0.05538168  1
  C  C51  1  0.50000000  0.55981590  0.38925672  1
  C  C52  1  0.50000000  0.55986950  0.72220766  1
  C  C53  1  0.50000000  0.62005089  0.05574355  1
  C  C54  1  0.50000000  0.61947229  0.38861623  1
  C  C55  1  0.50000000  0.61991822  0.72208297  1
  C  C56  1  0.50000000  0.67840541  0.06096154  1
  C  C57  1  0.50000000  0.67797068  0.38667100  1
  C  C58  1  0.50000000  0.67975801  0.72254151  1
  C  C59  1  0.50000000  0.73911979  0.72374976  1
  C  C60  1  0.50000000  0.25912594  0.77640695  1
  C  C61  1  0.50000000  0.31887179  0.77738461  1
  C  C62  1  0.50000000  0.38238325  0.11371492  1
  C  C63  1  0.50000000  0.38184286  0.43854351  1
  C  C64  1  0.50000000  0.37941466  0.77761833  1
  C  C65  1  0.50000000  0.44075653  0.11145542  1
  C  C66  1  0.50000000  0.44011208  0.44419876  1
  C  C67  1  0.50000000  0.43970655  0.77774731  1
  C  C68  1  0.50000000  0.50036036  0.11071993  1
  C  C69  1  0.50000000  0.50014831  0.44466445  1
  C  C70  1  0.50000000  0.49977313  0.77773067  1
  C  C71  1  0.50000000  0.55981920  0.11075340  1
  C  C72  1  0.50000000  0.55999477  0.44462990  1
  C  C73  1  0.50000000  0.55987077  0.77778444  1
  C  C74  1  0.50000000  0.61947041  0.11139885  1
  C  C75  1  0.50000000  0.62005356  0.44426898  1
  C  C76  1  0.50000000  0.61991789  0.77792064  1
  C  C77  1  0.50000000  0.67796849  0.11332788  1
  C  C78  1  0.50000000  0.67840663  0.43903726  1
  C  C79  1  0.50000000  0.67975770  0.77746455  1
  C  C80  1  0.50000000  0.73912082  0.77626383  1
  C  C81  1  0.50000000  0.28849584  0.80391276  1
  C  C82  1  0.50000000  0.34936674  0.80450213  1
  C  C83  1  0.50000000  0.41165051  0.14080717  1
  C  C84  1  0.50000000  0.40970158  0.47135097  1
  C  C85  1  0.50000000  0.40955626  0.80535181  1
  C  C86  1  0.50000000  0.47070904  0.13897531  1
  C  C87  1  0.50000000  0.46998679  0.47235741  1
  C  C88  1  0.50000000  0.46959710  0.80566668  1
  C  C89  1  0.50000000  0.53009606  0.13872796  1
  C  C90  1  0.50000000  0.53008018  0.47256017  1
  C  C91  1  0.50000000  0.52989990  0.80549474  1
  C  C92  1  0.50000000  0.58949631  0.13899021  1
  C  C93  1  0.50000000  0.59015159  0.47239522  1
  C  C94  1  0.50000000  0.59005621  0.80587399  1
  C  C95  1  0.50000000  0.64867341  0.14056328  1
  C  C96  1  0.50000000  0.65045281  0.47135650  1
  C  C97  1  0.50000000  0.64980313  0.80567906  1
  C  C98  1  0.50000000  0.70973152  0.80397039  1
  C  C99  1  0.50000000  0.28881498  0.53228241  1
  C  C100  1  0.50000000  0.28805244  0.85924281  1
  C  C101  1  0.50000000  0.34792844  0.53503550  1
  C  C102  1  0.50000000  0.34919524  0.85937040  1
  C  C103  1  0.50000000  0.41127562  0.19562279  1
  C  C104  1  0.50000000  0.40901405  0.52717056  1
  C  C105  1  0.50000000  0.40945102  0.86053003  1
  C  C106  1  0.50000000  0.47076720  0.19415619  1
  C  C107  1  0.50000000  0.46961784  0.52755549  1
  C  C108  1  0.50000000  0.46948953  0.86139528  1
  C  C109  1  0.50000000  0.53009284  0.19420627  1
  C  C110  1  0.50000000  0.53010037  0.52795318  1
  C  C111  1  0.50000000  0.52996600  0.86134437  1
  C  C112  1  0.50000000  0.58943016  0.19417225  1
  C  C113  1  0.50000000  0.59061958  0.52759758  1
  C  C114  1  0.50000000  0.59036551  0.86138005  1
  C  C115  1  0.50000000  0.64896034  0.19552939  1
  C  C116  1  0.50000000  0.65154485  0.52720639  1
  C  C117  1  0.50000000  0.65028847  0.86083633  1
  C  C118  1  0.50000000  0.71394617  0.53575666  1
  C  C119  1  0.50000000  0.71051737  0.85917674  1
  C  C120  1  0.50000000  0.25932105  0.55801680  1
  C  C121  1  0.50000000  0.25908205  0.88806673  1
  C  C122  1  0.50000000  0.31817765  0.56072654  1
  C  C123  1  0.50000000  0.31841853  0.88505266  1
  C  C124  1  0.50000000  0.38164547  0.22365979  1
  C  C125  1  0.50000000  0.37867170  0.55699963  1
  C  C126  1  0.50000000  0.37921218  0.88738162  1
  C  C127  1  0.50000000  0.44111256  0.22250417  1
  C  C128  1  0.50000000  0.43911982  0.55494301  1
  C  C129  1  0.50000000  0.43945296  0.88897432  1
  C  C130  1  0.50000000  0.50044646  0.22231350  1
  C  C131  1  0.50000000  0.49984252  0.55561245  1
  C  C132  1  0.50000000  0.49985556  0.88909488  1
  C  C133  1  0.50000000  0.55974015  0.22230750  1
  C  C134  1  0.50000000  0.56029208  0.55560378  1
  C  C135  1  0.50000000  0.56008713  0.88905641  1
  C  C136  1  0.50000000  0.61912455  0.22248742  1
  C  C137  1  0.50000000  0.62125381  0.55489737  1
  C  C138  1  0.50000000  0.62054068  0.88915340  1
  C  C139  1  0.50000000  0.67853296  0.22363680  1
  C  C140  1  0.50000000  0.68214593  0.55675582  1
  C  C141  1  0.50000000  0.68083112  0.88793051  1
  C  C142  1  0.50000000  0.74251707  0.56396630  1
  C  C143  1  0.50000000  0.74102445  0.88330314  1
  C  C144  1  0.50000000  0.25908812  0.61191924  1
  C  C145  1  0.50000000  0.25931368  0.94196844  1
  C  C146  1  0.50000000  0.31842638  0.61493122  1
  C  C147  1  0.50000000  0.31816660  0.93925666  1
  C  C148  1  0.50000000  0.38164704  0.27634088  1
  C  C149  1  0.50000000  0.37922272  0.61260636  1
  C  C150  1  0.50000000  0.37865281  0.94298740  1
  C  C151  1  0.50000000  0.44111543  0.27749157  1
  C  C152  1  0.50000000  0.43946848  0.61096320  1
  C  C153  1  0.50000000  0.43908745  0.94499948  1
  C  C154  1  0.50000000  0.50045186  0.27770523  1
  C  C155  1  0.50000000  0.49985914  0.61090172  1
  C  C156  1  0.50000000  0.49982611  0.94439159  1
  C  C157  1  0.50000000  0.55974027  0.27771761  1
  C  C158  1  0.50000000  0.56008934  0.61095302  1
  C  C159  1  0.50000000  0.56028093  0.94441133  1
  C  C160  1  0.50000000  0.61912335  0.27752867  1
  C  C161  1  0.50000000  0.62054625  0.61086020  1
  C  C162  1  0.50000000  0.62124289  0.94511458  1
  C  C163  1  0.50000000  0.67853269  0.27636357  1
  C  C164  1  0.50000000  0.68083338  0.61207328  1
  C  C165  1  0.50000000  0.68214028  0.94324687  1
  C  C166  1  0.50000000  0.74102621  0.61670913  1
  C  C167  1  0.50000000  0.74251330  0.93604697  1
  H  H168  1  0.50000000  0.23594420  0.70307325  1
  H  H169  1  0.50000000  0.76258120  0.70430002  1
  H  H170  1  0.50000000  0.23593967  0.79689916  1
  H  H171  1  0.50000000  0.76258485  0.79570640  1
  H  H172  1  0.50000000  0.23634409  0.53662393  1
  H  H173  1  0.50000000  0.23558066  0.86845365  1
  H  H174  1  0.50000000  0.76591700  0.54377932  1
  H  H175  1  0.50000000  0.76358298  0.86140506  1
  H  H176  1  0.50000000  0.23558888  0.63154020  1
  H  H177  1  0.50000000  0.23633712  0.96336045  1
  H  H178  1  0.50000000  0.76358659  0.63860261  1
  H  H179  1  0.50000000  0.76591439  0.95623363  1
  H  H180  1  0.50000000  0.28999064  0.00989258  1
  H  H181  1  0.50000000  0.34403038  0.00526564  1
  H  H182  1  0.50000000  0.71911270  0.00451680  1
  H  H183  1  0.50000000  0.35717786  0.04893263  1
  H  H184  1  0.50000000  0.35899515  0.36648565  1
  H  H185  1  0.50000000  0.70269111  0.04669812  1
  H  H186  1  0.50000000  0.70133733  0.36677594  1
  H  H187  1  0.50000000  0.35898403  0.13351142  1
  H  H188  1  0.50000000  0.35718091  0.45104705  1
  H  H189  1  0.50000000  0.70133410  0.13322402  1
  H  H190  1  0.50000000  0.70269130  0.45330380  1
  H  H191  1  0.50000000  0.28999645  0.49009333  1
  H  H192  1  0.50000000  0.34404149  0.49471947  1
  H  H193  1  0.50000000  0.71911906  0.49548960  1
  H  H194  1  0.50000000  0.35828629  0.20366660  1
  H  H195  1  0.50000000  0.70188380  0.20362774  1
  H  H196  1  0.50000000  0.35828829  0.29633926  1
  H  H197  1  0.50000000  0.70188077  0.29638506  1
