# generated using pymatgen
data_HC6
_symmetry_space_group_name_H-M   'P 1'
_cell_length_a   10.00000000
_cell_length_b   41.10890000
_cell_length_c   25.79205439
_cell_angle_alpha   90.00000000
_cell_angle_beta   90.00000000
_cell_angle_gamma   90.00000000
_symmetry_Int_Tables_number   1
_chemical_formula_structural   HC6
_chemical_formula_sum   'H28 C168'
_cell_volume   10602.82984902
_cell_formula_units_Z   28
loop_
 _symmetry_equiv_pos_site_id
 _symmetry_equiv_pos_as_xyz
  1  'x, y, z'
loop_
 _atom_site_type_symbol
 _atom_site_label
 _atom_site_symmetry_multiplicity
 _atom_site_fract_x
 _atom_site_fract_y
 _atom_site_fract_z
 _atom_site_occupancy
  C  C0  1  0.50000000  0.28938416  0.63818201  1
  C  C1  1  0.50000000  0.28960432  0.97112833  1
  C  C2  1  0.50000000  0.35076378  0.30670736  1
  C  C3  1  0.50000000  0.34986173  0.63883789  1
  C  C4  1  0.50000000  0.35032748  0.97230630  1
  C  C5  1  0.50000000  0.40993206  0.30565351  1
  C  C6  1  0.50000000  0.40992376  0.63908565  1
  C  C7  1  0.50000000  0.41009301  0.97202365  1
  C  C8  1  0.50000000  0.46992961  0.30545792  1
  C  C9  1  0.50000000  0.46996492  0.63899436  1
  C  C10  1  0.50000000  0.47000478  0.97191255  1
  C  C11  1  0.50000000  0.53007041  0.30545792  1
  C  C12  1  0.50000000  0.53003510  0.63899436  1
  C  C13  1  0.50000000  0.52999524  0.97191255  1
  C  C14  1  0.50000000  0.59006796  0.30565351  1
  C  C15  1  0.50000000  0.59007626  0.63908565  1
  C  C16  1  0.50000000  0.58990701  0.97202365  1
  C  C17  1  0.50000000  0.64923624  0.30670736  1
  C  C18  1  0.50000000  0.65013829  0.63883789  1
  C  C19  1  0.50000000  0.64967254  0.97230630  1
  C  C20  1  0.50000000  0.71061586  0.63818201  1
  C  C21  1  0.50000000  0.71039570  0.97112833  1
  C  C22  1  0.50000000  0.28958498  0.69458164  1
  C  C23  1  0.50000000  0.35130255  0.02657095  1
  C  C24  1  0.50000000  0.35079321  0.36025959  1
  C  C25  1  0.50000000  0.34984812  0.69429909  1
  C  C26  1  0.50000000  0.41024763  0.02740892  1
  C  C27  1  0.50000000  0.40993406  0.36119981  1
  C  C28  1  0.50000000  0.40989554  0.69448455  1
  C  C29  1  0.50000000  0.47003066  0.02766050  1
  C  C30  1  0.50000000  0.46992972  0.36134076  1
  C  C31  1  0.50000000  0.46995752  0.69461827  1
  C  C32  1  0.50000000  0.52996936  0.02766050  1
  C  C33  1  0.50000000  0.53007031  0.36134076  1
  C  C34  1  0.50000000  0.53004250  0.69461827  1
  C  C35  1  0.50000000  0.58975239  0.02740892  1
  C  C36  1  0.50000000  0.59006596  0.36119981  1
  C  C37  1  0.50000000  0.59010447  0.69448455  1
  C  C38  1  0.50000000  0.64869747  0.02657095  1
  C  C39  1  0.50000000  0.64920682  0.36025959  1
  C  C40  1  0.50000000  0.65015189  0.69429909  1
  C  C41  1  0.50000000  0.71041504  0.69458164  1
  C  C42  1  0.50000000  0.26042318  0.72325985  1
  C  C43  1  0.50000000  0.31958471  0.72219160  1
  C  C44  1  0.50000000  0.38015578  0.05483640  1
  C  C45  1  0.50000000  0.37999729  0.38874572  1
  C  C46  1  0.50000000  0.37978459  0.72205390  1
  C  C47  1  0.50000000  0.44020868  0.05534385  1
  C  C48  1  0.50000000  0.44014322  0.38900418  1
  C  C49  1  0.50000000  0.44002233  0.72222275  1
  C  C50  1  0.50000000  0.50000001  0.05548888  1
  C  C51  1  0.50000000  0.50000001  0.38907456  1
  C  C52  1  0.50000000  0.50000001  0.72231210  1
  C  C53  1  0.50000000  0.55979134  0.05534385  1
  C  C54  1  0.50000000  0.55985681  0.38900418  1
  C  C55  1  0.50000000  0.55997769  0.72222275  1
  C  C56  1  0.50000000  0.61984424  0.05483640  1
  C  C57  1  0.50000000  0.62000273  0.38874572  1
  C  C58  1  0.50000000  0.62021543  0.72205390  1
  C  C59  1  0.50000000  0.68041531  0.72219161  1
  C  C60  1  0.50000000  0.73957684  0.72325985  1
  C  C61  1  0.50000000  0.26042871  0.77679871  1
  C  C62  1  0.50000000  0.31959001  0.77780655  1
  C  C63  1  0.50000000  0.38000011  0.11124181  1
  C  C64  1  0.50000000  0.38015729  0.44517316  1
  C  C65  1  0.50000000  0.37978707  0.77793678  1
  C  C66  1  0.50000000  0.44013946  0.11098956  1
  C  C67  1  0.50000000  0.44021289  0.44464863  1
  C  C68  1  0.50000000  0.44002335  0.77777138  1
  C  C69  1  0.50000000  0.50000001  0.11092509  1
  C  C70  1  0.50000000  0.50000001  0.44450381  1
  C  C71  1  0.50000000  0.50000001  0.77768217  1
  C  C72  1  0.50000000  0.55986057  0.11098956  1
  C  C73  1  0.50000000  0.55978713  0.44464864  1
  C  C74  1  0.50000000  0.55997667  0.77777138  1
  C  C75  1  0.50000000  0.61999992  0.11124180  1
  C  C76  1  0.50000000  0.61984273  0.44517316  1
  C  C77  1  0.50000000  0.62021295  0.77793678  1
  C  C78  1  0.50000000  0.68041001  0.77780655  1
  C  C79  1  0.50000000  0.73957131  0.77679871  1
  C  C80  1  0.50000000  0.28960042  0.80543131  1
  C  C81  1  0.50000000  0.35079987  0.13978595  1
  C  C82  1  0.50000000  0.35129398  0.47342312  1
  C  C83  1  0.50000000  0.34985151  0.80570386  1
  C  C84  1  0.50000000  0.40993398  0.13880412  1
  C  C85  1  0.50000000  0.41025786  0.47260606  1
  C  C86  1  0.50000000  0.40989881  0.80551514  1
  C  C87  1  0.50000000  0.46992586  0.13864713  1
  C  C88  1  0.50000000  0.47002892  0.47232724  1
  C  C89  1  0.50000000  0.46995959  0.80538020  1
  C  C90  1  0.50000000  0.53007416  0.13864713  1
  C  C91  1  0.50000000  0.52997110  0.47232724  1
  C  C92  1  0.50000000  0.53004043  0.80538020  1
  C  C93  1  0.50000000  0.59006604  0.13880412  1
  C  C94  1  0.50000000  0.58974217  0.47260606  1
  C  C95  1  0.50000000  0.59010121  0.80551514  1
  C  C96  1  0.50000000  0.64920015  0.13978595  1
  C  C97  1  0.50000000  0.64870605  0.47342312  1
  C  C98  1  0.50000000  0.65014851  0.80570386  1
  C  C99  1  0.50000000  0.71039960  0.80543131  1
  C  C100  1  0.50000000  0.28961459  0.52890794  1
  C  C101  1  0.50000000  0.28940443  0.86181617  1
  C  C102  1  0.50000000  0.35076539  0.19334141  1
  C  C103  1  0.50000000  0.35031964  0.52770045  1
  C  C104  1  0.50000000  0.34986432  0.86116577  1
  C  C105  1  0.50000000  0.40993083  0.19435991  1
  C  C106  1  0.50000000  0.41009163  0.52796923  1
  C  C107  1  0.50000000  0.40992832  0.86090851  1
  C  C108  1  0.50000000  0.46992934  0.19453123  1
  C  C109  1  0.50000000  0.46999926  0.52808200  1
  C  C110  1  0.50000000  0.46996887  0.86099654  1
  C  C111  1  0.50000000  0.53007069  0.19453123  1
  C  C112  1  0.50000000  0.53000076  0.52808200  1
  C  C113  1  0.50000000  0.53003115  0.86099654  1
  C  C114  1  0.50000000  0.59006919  0.19435991  1
  C  C115  1  0.50000000  0.58990839  0.52796923  1
  C  C116  1  0.50000000  0.59007170  0.86090851  1
  C  C117  1  0.50000000  0.64923463  0.19334141  1
  C  C118  1  0.50000000  0.64968038  0.52770045  1
  C  C119  1  0.50000000  0.65013570  0.86116577  1
  C  C120  1  0.50000000  0.71038543  0.52890795  1
  C  C121  1  0.50000000  0.71059559  0.86181617  1
  C  C122  1  0.50000000  0.26029863  0.55580441  1
  C  C123  1  0.50000000  0.26017573  0.89015761  1
  C  C124  1  0.50000000  0.31954445  0.55539992  1
  C  C125  1  0.50000000  0.31960354  0.88922563  1
  C  C126  1  0.50000000  0.37995778  0.22189593  1
  C  C127  1  0.50000000  0.38008401  0.55572646  1
  C  C128  1  0.50000000  0.37991416  0.88856469  1
  C  C129  1  0.50000000  0.44010747  0.22220403  1
  C  C130  1  0.50000000  0.44016372  0.55578758  1
  C  C131  1  0.50000000  0.44007582  0.88865029  1
  C  C132  1  0.50000000  0.50000001  0.22225786  1
  C  C133  1  0.50000000  0.50000001  0.55586649  1
  C  C134  1  0.50000000  0.50000001  0.88873203  1
  C  C135  1  0.50000000  0.55989256  0.22220403  1
  C  C136  1  0.50000000  0.55983630  0.55578758  1
  C  C137  1  0.50000000  0.55992420  0.88865029  1
  C  C138  1  0.50000000  0.62004225  0.22189593  1
  C  C139  1  0.50000000  0.61991601  0.55572646  1
  C  C140  1  0.50000000  0.62008586  0.88856469  1
  C  C141  1  0.50000000  0.68045557  0.55539993  1
  C  C142  1  0.50000000  0.68039648  0.88922563  1
  C  C143  1  0.50000000  0.73970139  0.55580441  1
  C  C144  1  0.50000000  0.73982429  0.89015761  1
  C  C145  1  0.50000000  0.26015574  0.60980706  1
  C  C146  1  0.50000000  0.26030675  0.94415748  1
  C  C147  1  0.50000000  0.31959692  0.61078991  1
  C  C148  1  0.50000000  0.31954193  0.94462436  1
  C  C149  1  0.50000000  0.37995555  0.27814394  1
  C  C150  1  0.50000000  0.37991135  0.61141732  1
  C  C151  1  0.50000000  0.38008689  0.94425259  1
  C  C152  1  0.50000000  0.44010657  0.27780190  1
  C  C153  1  0.50000000  0.44006893  0.61133047  1
  C  C154  1  0.50000000  0.44017190  0.94419645  1
  C  C155  1  0.50000000  0.50000001  0.27773437  1
  C  C156  1  0.50000000  0.50000001  0.61126102  1
  C  C157  1  0.50000000  0.50000001  0.94413478  1
  C  C158  1  0.50000000  0.55989346  0.27780190  1
  C  C159  1  0.50000000  0.55993109  0.61133047  1
  C  C160  1  0.50000000  0.55982812  0.94419645  1
  C  C161  1  0.50000000  0.62004448  0.27814394  1
  C  C162  1  0.50000000  0.62008867  0.61141732  1
  C  C163  1  0.50000000  0.61991313  0.94425259  1
  C  C164  1  0.50000000  0.68040310  0.61078992  1
  C  C165  1  0.50000000  0.68045809  0.94462436  1
  C  C166  1  0.50000000  0.73984428  0.60980706  1
  C  C167  1  0.50000000  0.73969327  0.94415748  1
  H  H168  1  0.50000000  0.23694324  0.70335073  1
  H  H169  1  0.50000000  0.76305678  0.70335073  1
  H  H170  1  0.50000000  0.23696850  0.79678512  1
  H  H171  1  0.50000000  0.76303151  0.79678512  1
  H  H172  1  0.50000000  0.23727473  0.53437104  1
  H  H173  1  0.50000000  0.23673515  0.87015837  1
  H  H174  1  0.50000000  0.76272529  0.53437104  1
  H  H175  1  0.50000000  0.76326487  0.87015837  1
  H  H176  1  0.50000000  0.23669996  0.62973507  1
  H  H177  1  0.50000000  0.23722867  0.96539576  1
  H  H178  1  0.50000000  0.76330006  0.62973507  1
  H  H179  1  0.50000000  0.76277135  0.96539575  1
  H  H180  1  0.50000000  0.28882496  0.01349820  1
  H  H181  1  0.50000000  0.32731653  0.28678267  1
  H  H182  1  0.50000000  0.67268350  0.28678267  1
  H  H183  1  0.50000000  0.71117506  0.01349820  1
  H  H184  1  0.50000000  0.32839807  0.04769270  1
  H  H185  1  0.50000000  0.32732002  0.38015406  1
  H  H186  1  0.50000000  0.67160196  0.04769271  1
  H  H187  1  0.50000000  0.67268000  0.38015406  1
  H  H188  1  0.50000000  0.32728750  0.11998942  1
  H  H189  1  0.50000000  0.32842232  0.45220031  1
  H  H190  1  0.50000000  0.67271253  0.11998942  1
  H  H191  1  0.50000000  0.67157770  0.45220031  1
  H  H192  1  0.50000000  0.28886079  0.48657693  1
  H  H193  1  0.50000000  0.32730221  0.21323937  1
  H  H194  1  0.50000000  0.67269781  0.21323937  1
  H  H195  1  0.50000000  0.71113923  0.48657693  1
