# generated using pymatgen
data_H13C75
_symmetry_space_group_name_H-M   'P 1'
_cell_length_a   20.00000000
_cell_length_b   37.22700000
_cell_length_c   25.79091996
_cell_angle_alpha   90.00000000
_cell_angle_beta   90.00000000
_cell_angle_gamma   90.00000000
_symmetry_Int_Tables_number   1
_chemical_formula_structural   H13C75
_chemical_formula_sum   'H26 C150'
_cell_volume   19202.37154486
_cell_formula_units_Z   2
loop_
 _symmetry_equiv_pos_site_id
 _symmetry_equiv_pos_as_xyz
  1  'x, y, z'
loop_
 _atom_site_type_symbol
 _atom_site_label
 _atom_site_symmetry_multiplicity
 _atom_site_fract_x
 _atom_site_fract_y
 _atom_site_fract_z
 _atom_site_occupancy
  C  C0  1  0.50000000  0.31607750  0.55411431  1
  C  C1  1  0.50000000  0.31705706  0.88886072  1
  C  C2  1  0.50000000  0.38406908  0.22189948  1
  C  C3  1  0.50000000  0.38387930  0.55541929  1
  C  C4  1  0.50000000  0.38388248  0.88889345  1
  C  C5  1  0.50000000  0.45057007  0.22220539  1
  C  C6  1  0.50000000  0.45033323  0.55573516  1
  C  C7  1  0.50000000  0.45020389  0.88887972  1
  C  C8  1  0.50000000  0.51674381  0.22223853  1
  C  C9  1  0.50000000  0.51650575  0.55578123  1
  C  C10  1  0.50000000  0.51644749  0.88875090  1
  C  C11  1  0.50000000  0.58292841  0.22217535  1
  C  C12  1  0.50000000  0.58268201  0.55569081  1
  C  C13  1  0.50000000  0.58278349  0.88861636  1
  C  C14  1  0.50000000  0.64936337  0.22192657  1
  C  C15  1  0.50000000  0.64885276  0.55594726  1
  C  C16  1  0.50000000  0.64918296  0.88860110  1
  C  C17  1  0.50000000  0.71473951  0.55600391  1
  C  C18  1  0.50000000  0.71494011  0.89064052  1
  C  C19  1  0.50000000  0.31705983  0.61115960  1
  C  C20  1  0.50000000  0.31606774  0.94590704  1
  C  C21  1  0.50000000  0.38406687  0.27810045  1
  C  C22  1  0.50000000  0.38388299  0.61111277  1
  C  C23  1  0.50000000  0.38387840  0.94458548  1
  C  C24  1  0.50000000  0.45056096  0.27779302  1
  C  C25  1  0.50000000  0.45020449  0.61112296  1
  C  C26  1  0.50000000  0.45033443  0.94426829  1
  C  C27  1  0.50000000  0.51674098  0.27775212  1
  C  C28  1  0.50000000  0.51645114  0.61124327  1
  C  C29  1  0.50000000  0.51650604  0.94421708  1
  C  C30  1  0.50000000  0.58292674  0.27780710  1
  C  C31  1  0.50000000  0.58279082  0.61136913  1
  C  C32  1  0.50000000  0.58268162  0.94430080  1
  C  C33  1  0.50000000  0.64936460  0.27807640  1
  C  C34  1  0.50000000  0.64919462  0.61137891  1
  C  C35  1  0.50000000  0.64884988  0.94403549  1
  C  C36  1  0.50000000  0.71497058  0.60932020  1
  C  C37  1  0.50000000  0.71472328  0.94394598  1
  C  C38  1  0.50000000  0.28506143  0.63996423  1
  C  C39  1  0.50000000  0.28440579  0.97259443  1
  C  C40  1  0.50000000  0.35180726  0.30671601  1
  C  C41  1  0.50000000  0.35030469  0.63861321  1
  C  C42  1  0.50000000  0.35099158  0.97286670  1
  C  C43  1  0.50000000  0.41720264  0.30561073  1
  C  C44  1  0.50000000  0.41673046  0.63872438  1
  C  C45  1  0.50000000  0.41711530  0.97216122  1
  C  C46  1  0.50000000  0.48353327  0.30546590  1
  C  C47  1  0.50000000  0.48326246  0.63887536  1
  C  C48  1  0.50000000  0.48346321  0.97195178  1
  C  C49  1  0.50000000  0.54996746  0.30547561  1
  C  C50  1  0.50000000  0.54965820  0.63904159  1
  C  C51  1  0.50000000  0.54976788  0.97198685  1
  C  C52  1  0.50000000  0.61625550  0.30565575  1
  C  C53  1  0.50000000  0.61586615  0.63918712  1
  C  C54  1  0.50000000  0.61587798  0.97206064  1
  C  C55  1  0.50000000  0.68161086  0.30651484  1
  C  C56  1  0.50000000  0.68249842  0.63844089  1
  C  C57  1  0.50000000  0.68190987  0.97195105  1
  C  C58  1  0.50000000  0.28516414  0.69357029  1
  C  C59  1  0.50000000  0.35234455  0.02678781  1
  C  C60  1  0.50000000  0.35186380  0.36024305  1
  C  C61  1  0.50000000  0.35049119  0.69423308  1
  C  C62  1  0.50000000  0.41747530  0.02757947  1
  C  C63  1  0.50000000  0.41724131  0.36115653  1
  C  C64  1  0.50000000  0.41680897  0.69454074  1
  C  C65  1  0.50000000  0.48361512  0.02771340  1
  C  C66  1  0.50000000  0.48358030  0.36135669  1
  C  C67  1  0.50000000  0.48327182  0.69459941  1
  C  C68  1  0.50000000  0.54992648  0.02763431  1
  C  C69  1  0.50000000  0.55002356  0.36133404  1
  C  C70  1  0.50000000  0.54964738  0.69449770  1
  C  C71  1  0.50000000  0.61608280  0.02741471  1
  C  C72  1  0.50000000  0.61633395  0.36122436  1
  C  C73  1  0.50000000  0.61589290  0.69449584  1
  C  C74  1  0.50000000  0.68149328  0.02656472  1
  C  C75  1  0.50000000  0.68165326  0.36010884  1
  C  C76  1  0.50000000  0.68248493  0.69451282  1
  C  C77  1  0.50000000  0.31740364  0.72193112  1
  C  C78  1  0.50000000  0.38437278  0.05501009  1
  C  C79  1  0.50000000  0.38417276  0.38873259  1
  C  C80  1  0.50000000  0.38379047  0.72217166  1
  C  C81  1  0.50000000  0.45067391  0.05543164  1
  C  C82  1  0.50000000  0.45059441  0.38900393  1
  C  C83  1  0.50000000  0.45003033  0.72226783  1
  C  C84  1  0.50000000  0.51676951  0.05545738  1
  C  C85  1  0.50000000  0.51675164  0.38906992  1
  C  C86  1  0.50000000  0.51633190  0.72221688  1
  C  C87  1  0.50000000  0.58299718  0.05530400  1
  C  C88  1  0.50000000  0.58294093  0.38895728  1
  C  C89  1  0.50000000  0.58274768  0.72213570  1
  C  C90  1  0.50000000  0.64965971  0.05482160  1
  C  C91  1  0.50000000  0.64949415  0.38871154  1
  C  C92  1  0.50000000  0.64932495  0.72216383  1
  C  C93  1  0.50000000  0.71485246  0.72330508  1
  C  C94  1  0.50000000  0.31740808  0.77807330  1
  C  C95  1  0.50000000  0.38417785  0.11126761  1
  C  C96  1  0.50000000  0.38437174  0.44499782  1
  C  C97  1  0.50000000  0.38379049  0.77783836  1
  C  C98  1  0.50000000  0.45060327  0.11097900  1
  C  C99  1  0.50000000  0.45066634  0.44455617  1
  C  C100  1  0.50000000  0.45002901  0.77773548  1
  C  C101  1  0.50000000  0.51675511  0.11092324  1
  C  C102  1  0.50000000  0.51676432  0.44453470  1
  C  C103  1  0.50000000  0.51632908  0.77777625  1
  C  C104  1  0.50000000  0.58294644  0.11103330  1
  C  C105  1  0.50000000  0.58299034  0.44468493  1
  C  C106  1  0.50000000  0.58274446  0.77784530  1
  C  C107  1  0.50000000  0.64950181  0.11127634  1
  C  C108  1  0.50000000  0.64964770  0.44516864  1
  C  C109  1  0.50000000  0.64931617  0.77780940  1
  C  C110  1  0.50000000  0.71483863  0.77671639  1
  C  C111  1  0.50000000  0.28517705  0.80644141  1
  C  C112  1  0.50000000  0.35187674  0.13976634  1
  C  C113  1  0.50000000  0.35233936  0.47320960  1
  C  C114  1  0.50000000  0.35049215  0.80577977  1
  C  C115  1  0.50000000  0.41724966  0.13883531  1
  C  C116  1  0.50000000  0.41747420  0.47242350  1
  C  C117  1  0.50000000  0.41680858  0.80546853  1
  C  C118  1  0.50000000  0.48358395  0.13863511  1
  C  C119  1  0.50000000  0.48360970  0.47228070  1
  C  C120  1  0.50000000  0.48327113  0.80540145  1
  C  C121  1  0.50000000  0.55002738  0.13865423  1
  C  C122  1  0.50000000  0.54992110  0.47235777  1
  C  C123  1  0.50000000  0.54964468  0.80549113  1
  C  C124  1  0.50000000  0.61634037  0.13876038  1
  C  C125  1  0.50000000  0.61607468  0.47257614  1
  C  C126  1  0.50000000  0.61588631  0.80548549  1
  C  C127  1  0.50000000  0.68164820  0.13990614  1
  C  C128  1  0.50000000  0.68148596  0.47340491  1
  C  C129  1  0.50000000  0.68246467  0.80547122  1
  C  C130  1  0.50000000  0.28439122  0.52750183  1
  C  C131  1  0.50000000  0.28506889  0.86003848  1
  C  C132  1  0.50000000  0.35181975  0.19330499  1
  C  C133  1  0.50000000  0.35099185  0.52713675  1
  C  C134  1  0.50000000  0.35030275  0.86140085  1
  C  C135  1  0.50000000  0.41720266  0.19439088  1
  C  C136  1  0.50000000  0.41711463  0.52784246  1
  C  C137  1  0.50000000  0.41672984  0.86128320  1
  C  C138  1  0.50000000  0.48354294  0.19452245  1
  C  C139  1  0.50000000  0.48346089  0.52804824  1
  C  C140  1  0.50000000  0.48325903  0.86112417  1
  C  C141  1  0.50000000  0.54996965  0.19451053  1
  C  C142  1  0.50000000  0.54976641  0.52800798  1
  C  C143  1  0.50000000  0.54965067  0.86094731  1
  C  C144  1  0.50000000  0.61625920  0.19432989  1
  C  C145  1  0.50000000  0.61587584  0.52792945  1
  C  C146  1  0.50000000  0.61585725  0.86079417  1
  C  C147  1  0.50000000  0.68160368  0.19348879  1
  C  C148  1  0.50000000  0.68191375  0.52802494  1
  C  C149  1  0.50000000  0.68247666  0.86153378  1
  H  H150  1  0.50000000  0.73999252  0.53416724  1
  H  H151  1  0.50000000  0.74085557  0.87074516  1
  H  H152  1  0.50000000  0.74087951  0.62924955  1
  H  H153  1  0.50000000  0.74002957  0.96561759  1
  H  H154  1  0.50000000  0.25915974  0.62002017  1
  H  H155  1  0.50000000  0.25824417  0.95341233  1
  H  H156  1  0.50000000  0.25938059  0.71374757  1
  H  H157  1  0.50000000  0.74070991  0.70326408  1
  H  H158  1  0.50000000  0.74066234  0.79683670  1
  H  H159  1  0.50000000  0.25937772  0.78632992  1
  H  H160  1  0.50000000  0.25827504  0.54682384  1
  H  H161  1  0.50000000  0.25913793  0.87988194  1
  H  H162  1  0.50000000  0.28309162  0.01494843  1
  H  H163  1  0.50000000  0.32590229  0.28679859  1
  H  H164  1  0.50000000  0.70745829  0.28646732  1
  H  H165  1  0.50000000  0.32712033  0.04808029  1
  H  H166  1  0.50000000  0.32595478  0.38019466  1
  H  H167  1  0.50000000  0.70751546  0.04624434  1
  H  H168  1  0.50000000  0.70752448  0.38013048  1
  H  H169  1  0.50000000  0.32594776  0.11992407  1
  H  H170  1  0.50000000  0.32712735  0.45188323  1
  H  H171  1  0.50000000  0.70755149  0.11999580  1
  H  H172  1  0.50000000  0.70748152  0.45363308  1
  H  H173  1  0.50000000  0.28303084  0.48516194  1
  H  H174  1  0.50000000  0.32592288  0.21322689  1
  H  H175  1  0.50000000  0.70746280  0.21349003  1
