# generated using pymatgen
data_H7C39
_symmetry_space_group_name_H-M   'P 1'
_cell_length_a   20.00000000
_cell_length_b   40.19450000
_cell_length_c   25.88874813
_cell_angle_alpha   90.00000000
_cell_angle_beta   90.00000000
_cell_angle_gamma   90.00000000
_symmetry_Int_Tables_number   1
_chemical_formula_structural   H7C39
_chemical_formula_sum   'H28 C156'
_cell_volume   20811.70573147
_cell_formula_units_Z   4
loop_
 _symmetry_equiv_pos_site_id
 _symmetry_equiv_pos_as_xyz
  1  'x, y, z'
loop_
 _atom_site_type_symbol
 _atom_site_label
 _atom_site_symmetry_multiplicity
 _atom_site_fract_x
 _atom_site_fract_y
 _atom_site_fract_z
 _atom_site_occupancy
  C  C0  1  0.50000000  0.28495137  0.10924397  1
  C  C1  1  0.50000000  0.28584515  0.61053185  1
  C  C2  1  0.50000000  0.28467984  0.27658449  1
  C  C3  1  0.50000000  0.28603487  0.77659584  1
  C  C4  1  0.50000000  0.28518198  0.44393282  1
  C  C5  1  0.50000000  0.28564944  0.94264576  1
  C  C6  1  0.50000000  0.31480787  0.13838429  1
  C  C7  1  0.50000000  0.31599896  0.63907766  1
  C  C8  1  0.50000000  0.31463993  0.30566358  1
  C  C9  1  0.50000000  0.31612988  0.80527015  1
  C  C10  1  0.50000000  0.31529363  0.47265036  1
  C  C11  1  0.50000000  0.31559627  0.97157938  1
  C  C12  1  0.50000000  0.28520879  0.05607358  1
  C  C13  1  0.50000000  0.28564413  0.55743636  1
  C  C14  1  0.50000000  0.28470930  0.22335003  1
  C  C15  1  0.50000000  0.28601460  0.72353903  1
  C  C16  1  0.50000000  0.28493640  0.39075075  1
  C  C17  1  0.50000000  0.28583622  0.88954674  1
  C  C18  1  0.50000000  0.34548839  0.11078214  1
  C  C19  1  0.50000000  0.34661737  0.61142800  1
  C  C20  1  0.50000000  0.34519680  0.27783451  1
  C  C21  1  0.50000000  0.34682941  0.77777046  1
  C  C22  1  0.50000000  0.34581182  0.44484488  1
  C  C23  1  0.50000000  0.34637306  0.94414842  1
  C  C24  1  0.50000000  0.37614314  0.13881988  1
  C  C25  1  0.50000000  0.37757897  0.63924557  1
  C  C26  1  0.50000000  0.37594286  0.30580893  1
  C  C27  1  0.50000000  0.37772291  0.80560028  1
  C  C28  1  0.50000000  0.37673295  0.47272470  1
  C  C29  1  0.50000000  0.37714908  0.97209790  1
  C  C30  1  0.50000000  0.31531099  0.02735633  1
  C  C31  1  0.50000000  0.31557584  0.52845777  1
  C  C32  1  0.50000000  0.31465640  0.19428787  1
  C  C33  1  0.50000000  0.31610501  0.69482378  1
  C  C34  1  0.50000000  0.31478999  0.36158046  1
  C  C35  1  0.50000000  0.31599595  0.86099695  1
  C  C36  1  0.50000000  0.34582779  0.05514114  1
  C  C37  1  0.50000000  0.34635653  0.55587253  1
  C  C38  1  0.50000000  0.34521035  0.22211628  1
  C  C39  1  0.50000000  0.34681331  0.72230193  1
  C  C40  1  0.50000000  0.34545819  0.38919251  1
  C  C41  1  0.50000000  0.34662383  0.88860113  1
  C  C42  1  0.50000000  0.40682662  0.11080045  1
  C  C43  1  0.50000000  0.40831712  0.61124207  1
  C  C44  1  0.50000000  0.40648782  0.27773950  1
  C  C45  1  0.50000000  0.40857567  0.77778995  1
  C  C46  1  0.50000000  0.40729553  0.44468030  1
  C  C47  1  0.50000000  0.40807056  0.94426700  1
  C  C48  1  0.50000000  0.43724597  0.13871925  1
  C  C49  1  0.50000000  0.43914245  0.63884732  1
  C  C50  1  0.50000000  0.43702092  0.30571589  1
  C  C51  1  0.50000000  0.43922943  0.80554720  1
  C  C52  1  0.50000000  0.43808430  0.47246359  1
  C  C53  1  0.50000000  0.43869970  0.97203991  1
  C  C54  1  0.50000000  0.37674299  0.02725867  1
  C  C55  1  0.50000000  0.37712307  0.52788792  1
  C  C56  1  0.50000000  0.37595488  0.19410060  1
  C  C57  1  0.50000000  0.37770526  0.69443729  1
  C  C58  1  0.50000000  0.37610470  0.36111828  1
  C  C59  1  0.50000000  0.37758898  0.86077022  1
  C  C60  1  0.50000000  0.40730619  0.05527642  1
  C  C61  1  0.50000000  0.40803932  0.55573194  1
  C  C62  1  0.50000000  0.40648274  0.22220362  1
  C  C63  1  0.50000000  0.40856791  0.72221424  1
  C  C64  1  0.50000000  0.40680928  0.38916814  1
  C  C65  1  0.50000000  0.40833545  0.88875774  1
  C  C66  1  0.50000000  0.46789914  0.11081600  1
  C  C67  1  0.50000000  0.46990567  0.61091167  1
  C  C68  1  0.50000000  0.46746310  0.27767110  1
  C  C69  1  0.50000000  0.47010451  0.77771412  1
  C  C70  1  0.50000000  0.46859254  0.44449004  1
  C  C71  1  0.50000000  0.46974631  0.94436876  1
  C  C72  1  0.50000000  0.49822046  0.13903231  1
  C  C73  1  0.50000000  0.50096903  0.63850934  1
  C  C74  1  0.50000000  0.49796234  0.30576933  1
  C  C75  1  0.50000000  0.50088598  0.80570027  1
  C  C76  1  0.50000000  0.49959672  0.47218573  1
  C  C77  1  0.50000000  0.50054916  0.97247429  1
  C  C78  1  0.50000000  0.43811472  0.02751443  1
  C  C79  1  0.50000000  0.43867777  0.52798210  1
  C  C80  1  0.50000000  0.43700923  0.19423335  1
  C  C81  1  0.50000000  0.43921504  0.69443351  1
  C  C82  1  0.50000000  0.43722245  0.36121749  1
  C  C83  1  0.50000000  0.43916513  0.86112758  1
  C  C84  1  0.50000000  0.46861503  0.05550567  1
  C  C85  1  0.50000000  0.46972164  0.55562890  1
  C  C86  1  0.50000000  0.46745264  0.22228304  1
  C  C87  1  0.50000000  0.47009474  0.72226579  1
  C  C88  1  0.50000000  0.46787065  0.38915332  1
  C  C89  1  0.50000000  0.46993017  0.88906825  1
  C  C90  1  0.50000000  0.52900294  0.11166502  1
  C  C91  1  0.50000000  0.53159704  0.61075590  1
  C  C92  1  0.50000000  0.52832062  0.27749224  1
  C  C93  1  0.50000000  0.53147037  0.77775804  1
  C  C94  1  0.50000000  0.53000291  0.44395000  1
  C  C95  1  0.50000000  0.53185359  0.94522411  1
  C  C96  1  0.50000000  0.55869983  0.14109653  1
  C  C97  1  0.50000000  0.56239525  0.63910193  1
  C  C98  1  0.50000000  0.55894468  0.30422883  1
  C  C99  1  0.50000000  0.56230856  0.80551800  1
  C  C100  1  0.50000000  0.56125467  0.47092276  1
  C  C101  1  0.50000000  0.56254732  0.97333083  1
  C  C102  1  0.50000000  0.49963253  0.02779029  1
  C  C103  1  0.50000000  0.50051456  0.52751040  1
  C  C104  1  0.50000000  0.49795793  0.19421721  1
  C  C105  1  0.50000000  0.50086121  0.69425194  1
  C  C106  1  0.50000000  0.49820380  0.36095119  1
  C  C107  1  0.50000000  0.50099486  0.86146449  1
  C  C108  1  0.50000000  0.53003924  0.05602459  1
  C  C109  1  0.50000000  0.53181311  0.55477313  1
  C  C110  1  0.50000000  0.52829342  0.22255008  1
  C  C111  1  0.50000000  0.53145918  0.72216905  1
  C  C112  1  0.50000000  0.52899218  0.38831355  1
  C  C113  1  0.50000000  0.53161545  0.88922759  1
  C  C114  1  0.50000000  0.58881738  0.11436425  1
  C  C115  1  0.50000000  0.59326330  0.61204157  1
  C  C116  1  0.50000000  0.58932678  0.27634673  1
  C  C117  1  0.50000000  0.59309116  0.77767156  1
  C  C118  1  0.50000000  0.58965297  0.43798845  1
  C  C119  1  0.50000000  0.59378997  0.94374881  1
  C  C120  1  0.50000000  0.62395676  0.64015982  1
  C  C121  1  0.50000000  0.62380775  0.80472033  1
  C  C122  1  0.50000000  0.62526410  0.96584690  1
  C  C123  1  0.50000000  0.56131324  0.02909152  1
  C  C124  1  0.50000000  0.56249159  0.52666624  1
  C  C125  1  0.50000000  0.55889048  0.19579964  1
  C  C126  1  0.50000000  0.56229314  0.69439257  1
  C  C127  1  0.50000000  0.55872143  0.35893376  1
  C  C128  1  0.50000000  0.56240066  0.86084001  1
  C  C129  1  0.50000000  0.58968983  0.06207549  1
  C  C130  1  0.50000000  0.59375731  0.55619972  1
  C  C131  1  0.50000000  0.58927237  0.22365369  1
  C  C132  1  0.50000000  0.59308401  0.72222190  1
  C  C133  1  0.50000000  0.58883392  0.38570165  1
  C  C134  1  0.50000000  0.59326945  0.88789960  1
  C  C135  1  0.50000000  0.65542790  0.61440133  1
  C  C136  1  0.50000000  0.65498534  0.77746281  1
  C  C137  1  0.50000000  0.65571474  0.93998109  1
  C  C138  1  0.50000000  0.68644408  0.64035342  1
  C  C139  1  0.50000000  0.68600953  0.80410529  1
  C  C140  1  0.50000000  0.68581659  0.96836947  1
  C  C141  1  0.50000000  0.62523435  0.53412165  1
  C  C142  1  0.50000000  0.62380613  0.69520886  1
  C  C143  1  0.50000000  0.62396372  0.85977814  1
  C  C144  1  0.50000000  0.65567345  0.56000555  1
  C  C145  1  0.50000000  0.65498658  0.72248742  1
  C  C146  1  0.50000000  0.65543849  0.88558461  1
  C  C147  1  0.50000000  0.71607369  0.61145043  1
  C  C148  1  0.50000000  0.71605164  0.77648276  1
  C  C149  1  0.50000000  0.71595343  0.94244632  1
  C  C150  1  0.50000000  0.68572935  0.53151852  1
  C  C151  1  0.50000000  0.68602245  0.69585676  1
  C  C152  1  0.50000000  0.68644839  0.85960455  1
  C  C153  1  0.50000000  0.71587135  0.55742370  1
  C  C154  1  0.50000000  0.71606640  0.72349764  1
  C  C155  1  0.50000000  0.71611570  0.88841964  1
  H  H156  1  0.50000000  0.26095147  0.12905441  1
  H  H157  1  0.50000000  0.26195375  0.63065469  1
  H  H158  1  0.50000000  0.26068048  0.29639535  1
  H  H159  1  0.50000000  0.26210489  0.79665402  1
  H  H160  1  0.50000000  0.26128891  0.46402133  1
  H  H161  1  0.50000000  0.26166658  0.96253774  1
  H  H162  1  0.50000000  0.26131325  0.03599309  1
  H  H163  1  0.50000000  0.26164863  0.53760028  1
  H  H164  1  0.50000000  0.26076959  0.20339739  1
  H  H165  1  0.50000000  0.26204199  0.70362079  1
  H  H166  1  0.50000000  0.26097032  0.37086073  1
  H  H167  1  0.50000000  0.26193031  0.86942721  1
  H  H168  1  0.50000000  0.74009505  0.63111801  1
  H  H169  1  0.50000000  0.73977275  0.79697734  1
  H  H170  1  0.50000000  0.73947478  0.96382415  1
  H  H171  1  0.50000000  0.73941915  0.53615821  1
  H  H172  1  0.50000000  0.73983232  0.70310021  1
  H  H173  1  0.50000000  0.74009143  0.86859917  1
  H  H174  1  0.50000000  0.68468702  0.48916843  1
  H  H175  1  0.50000000  0.68495747  0.01070504  1
  H  H176  1  0.50000000  0.61256384  0.13460909  1
  H  H177  1  0.50000000  0.61324296  0.29624572  1
  H  H178  1  0.50000000  0.61479572  0.45078848  1
  H  H179  1  0.50000000  0.62954303  0.00629164  1
  H  H180  1  0.50000000  0.61485775  0.04938749  1
  H  H181  1  0.50000000  0.61308727  0.20347368  1
  H  H182  1  0.50000000  0.61260878  0.36551462  1
  H  H183  1  0.50000000  0.62958828  0.49365141  1
