# generated using pymatgen
data_HC4
_symmetry_space_group_name_H-M   'P 1'
_cell_length_a   10.00000000
_cell_length_b   41.10890000
_cell_length_c   25.96055021
_cell_angle_alpha   90.00000000
_cell_angle_beta   90.00000000
_cell_angle_gamma   90.00000000
_symmetry_Int_Tables_number   1
_chemical_formula_structural   HC4
_chemical_formula_sum   'H42 C168'
_cell_volume   10672.09662653
_cell_formula_units_Z   42
loop_
 _symmetry_equiv_pos_site_id
 _symmetry_equiv_pos_as_xyz
  1  'x, y, z'
loop_
 _atom_site_type_symbol
 _atom_site_label
 _atom_site_symmetry_multiplicity
 _atom_site_fract_x
 _atom_site_fract_y
 _atom_site_fract_z
 _atom_site_occupancy
  C  C0  1  0.50000000  0.28597046  0.30595802  1
  C  C1  1  0.50000000  0.29076047  0.63918357  1
  C  C2  1  0.50000000  0.28955465  0.97091932  1
  C  C3  1  0.50000000  0.34581882  0.30587519  1
  C  C4  1  0.50000000  0.35095504  0.63870308  1
  C  C5  1  0.50000000  0.34992572  0.97251299  1
  C  C6  1  0.50000000  0.40549281  0.30404431  1
  C  C7  1  0.50000000  0.41071848  0.63901986  1
  C  C8  1  0.50000000  0.41052651  0.97349065  1
  C  C9  1  0.50000000  0.47077852  0.64032280  1
  C  C10  1  0.50000000  0.47219539  0.96586507  1
  C  C11  1  0.50000000  0.53148569  0.64151845  1
  C  C12  1  0.50000000  0.53132623  0.96698862  1
  C  C13  1  0.50000000  0.59164595  0.64034238  1
  C  C14  1  0.50000000  0.59122285  0.96809747  1
  C  C15  1  0.50000000  0.65095212  0.30740305  1
  C  C16  1  0.50000000  0.65159015  0.63950446  1
  C  C17  1  0.50000000  0.65173514  0.97179930  1
  C  C18  1  0.50000000  0.71025541  0.30553086  1
  C  C19  1  0.50000000  0.71174159  0.63878886  1
  C  C20  1  0.50000000  0.71169667  0.97200328  1
  C  C21  1  0.50000000  0.28844256  0.02669603  1
  C  C22  1  0.50000000  0.28650477  0.36211455  1
  C  C23  1  0.50000000  0.29089788  0.69495497  1
  C  C24  1  0.50000000  0.34853234  0.02759023  1
  C  C25  1  0.50000000  0.34638242  0.36090955  1
  C  C26  1  0.50000000  0.35095058  0.69417043  1
  C  C27  1  0.50000000  0.40880759  0.02948534  1
  C  C28  1  0.50000000  0.40562865  0.35887648  1
  C  C29  1  0.50000000  0.41068186  0.69442523  1
  C  C30  1  0.50000000  0.47074427  0.69533942  1
  C  C31  1  0.50000000  0.53135022  0.69609142  1
  C  C32  1  0.50000000  0.59171354  0.69531781  1
  C  C33  1  0.50000000  0.65234571  0.02534142  1
  C  C34  1  0.50000000  0.65125009  0.36045417  1
  C  C35  1  0.50000000  0.65174577  0.69455033  1
  C  C36  1  0.50000000  0.71153139  0.02767294  1
  C  C37  1  0.50000000  0.71052727  0.36134045  1
  C  C38  1  0.50000000  0.71186404  0.69466577  1
  C  C39  1  0.50000000  0.25872650  0.05465576  1
  C  C40  1  0.50000000  0.25770291  0.39217025  1
  C  C41  1  0.50000000  0.26169183  0.72345082  1
  C  C42  1  0.50000000  0.31790982  0.05499557  1
  C  C43  1  0.50000000  0.31671729  0.38937669  1
  C  C44  1  0.50000000  0.32090982  0.72227354  1
  C  C45  1  0.50000000  0.37811049  0.05609805  1
  C  C46  1  0.50000000  0.37667363  0.38820761  1
  C  C47  1  0.50000000  0.38076142  0.72213960  1
  C  C48  1  0.50000000  0.43641293  0.06244422  1
  C  C49  1  0.50000000  0.43523961  0.38525818  1
  C  C50  1  0.50000000  0.44067101  0.72239197  1
  C  C51  1  0.50000000  0.50098233  0.72263430  1
  C  C52  1  0.50000000  0.56156242  0.72268529  1
  C  C53  1  0.50000000  0.62176927  0.72242630  1
  C  C54  1  0.50000000  0.68128890  0.05467519  1
  C  C55  1  0.50000000  0.68075674  0.38926730  1
  C  C56  1  0.50000000  0.68190850  0.72229829  1
  C  C57  1  0.50000000  0.74068338  0.05726058  1
  C  C58  1  0.50000000  0.74020821  0.38979927  1
  C  C59  1  0.50000000  0.74109563  0.72340099  1
  C  C60  1  0.50000000  0.25770024  0.10781068  1
  C  C61  1  0.50000000  0.25872639  0.44532484  1
  C  C62  1  0.50000000  0.26169161  0.77658491  1
  C  C63  1  0.50000000  0.31671514  0.11060208  1
  C  C64  1  0.50000000  0.31791114  0.44497334  1
  C  C65  1  0.50000000  0.32091497  0.77773144  1
  C  C66  1  0.50000000  0.37667233  0.11176810  1
  C  C67  1  0.50000000  0.37811747  0.44387200  1
  C  C68  1  0.50000000  0.38075942  0.77783917  1
  C  C69  1  0.50000000  0.43523928  0.11472664  1
  C  C70  1  0.50000000  0.43641193  0.43754290  1
  C  C71  1  0.50000000  0.44067064  0.77757721  1
  C  C72  1  0.50000000  0.50098380  0.77735092  1
  C  C73  1  0.50000000  0.56156406  0.77732161  1
  C  C74  1  0.50000000  0.62176960  0.77759617  1
  C  C75  1  0.50000000  0.68074451  0.11075602  1
  C  C76  1  0.50000000  0.68130299  0.44535562  1
  C  C77  1  0.50000000  0.68190803  0.77771590  1
  C  C78  1  0.50000000  0.74019267  0.11019857  1
  C  C79  1  0.50000000  0.74070654  0.44274002  1
  C  C80  1  0.50000000  0.74109781  0.77662080  1
  C  C81  1  0.50000000  0.28650077  0.13787142  1
  C  C82  1  0.50000000  0.28844319  0.47328812  1
  C  C83  1  0.50000000  0.29091067  0.80505777  1
  C  C84  1  0.50000000  0.34638245  0.13907139  1
  C  C85  1  0.50000000  0.34853426  0.47237083  1
  C  C86  1  0.50000000  0.35095375  0.80582922  1
  C  C87  1  0.50000000  0.40562848  0.14110822  1
  C  C88  1  0.50000000  0.40880994  0.47050014  1
  C  C89  1  0.50000000  0.41068285  0.80554807  1
  C  C90  1  0.50000000  0.47074233  0.80464506  1
  C  C91  1  0.50000000  0.53135087  0.80390592  1
  C  C92  1  0.50000000  0.59171297  0.80469974  1
  C  C93  1  0.50000000  0.65123724  0.13957434  1
  C  C94  1  0.50000000  0.65235961  0.47468754  1
  C  C95  1  0.50000000  0.65174480  0.80546734  1
  C  C96  1  0.50000000  0.71052325  0.13868361  1
  C  C97  1  0.50000000  0.71155303  0.47233597  1
  C  C98  1  0.50000000  0.71186344  0.80534660  1
  C  C99  1  0.50000000  0.28597281  0.19403060  1
  C  C100  1  0.50000000  0.28955376  0.52906692  1
  C  C101  1  0.50000000  0.29077582  0.86083221  1
  C  C102  1  0.50000000  0.34582288  0.19411052  1
  C  C103  1  0.50000000  0.34992147  0.52747010  1
  C  C104  1  0.50000000  0.35095981  0.86129480  1
  C  C105  1  0.50000000  0.40549256  0.19594383  1
  C  C106  1  0.50000000  0.41053064  0.52648988  1
  C  C107  1  0.50000000  0.41072292  0.86096155  1
  C  C108  1  0.50000000  0.47219831  0.53411994  1
  C  C109  1  0.50000000  0.47077313  0.85966460  1
  C  C110  1  0.50000000  0.53133390  0.53302504  1
  C  C111  1  0.50000000  0.53148467  0.85848088  1
  C  C112  1  0.50000000  0.59123453  0.53191652  1
  C  C113  1  0.50000000  0.59164130  0.85967525  1
  C  C114  1  0.50000000  0.65095316  0.19262568  1
  C  C115  1  0.50000000  0.65174598  0.52822266  1
  C  C116  1  0.50000000  0.65158286  0.86051155  1
  C  C117  1  0.50000000  0.71025891  0.19449625  1
  C  C118  1  0.50000000  0.71171038  0.52800709  1
  C  C119  1  0.50000000  0.71173516  0.86121924  1
  C  C120  1  0.50000000  0.25672404  0.22333150  1
  C  C121  1  0.50000000  0.26059258  0.55839430  1
  C  C122  1  0.50000000  0.26119364  0.88860137  1
  C  C123  1  0.50000000  0.31574507  0.22207931  1
  C  C124  1  0.50000000  0.31995573  0.55590368  1
  C  C125  1  0.50000000  0.32048818  0.88870527  1
  C  C126  1  0.50000000  0.37553615  0.22250496  1
  C  C127  1  0.50000000  0.38071302  0.55455660  1
  C  C128  1  0.50000000  0.38074471  0.88922585  1
  C  C129  1  0.50000000  0.43510456  0.22372141  1
  C  C130  1  0.50000000  0.44126825  0.55598380  1
  C  C131  1  0.50000000  0.44085644  0.88810722  1
  C  C132  1  0.50000000  0.50181861  0.56051012  1
  C  C133  1  0.50000000  0.50141494  0.88503877  1
  C  C134  1  0.50000000  0.56119553  0.55871616  1
  C  C135  1  0.50000000  0.56137755  0.88607835  1
  C  C136  1  0.50000000  0.62100212  0.55677810  1
  C  C137  1  0.50000000  0.62157455  0.88762707  1
  C  C138  1  0.50000000  0.68023568  0.22202459  1
  C  C139  1  0.50000000  0.68187848  0.55602766  1
  C  C140  1  0.50000000  0.68189093  0.88858561  1
  C  C141  1  0.50000000  0.73966236  0.22354748  1
  C  C142  1  0.50000000  0.74113724  0.55681023  1
  C  C143  1  0.50000000  0.74110172  0.89022939  1
  C  C144  1  0.50000000  0.25672302  0.27665814  1
  C  C145  1  0.50000000  0.26118849  0.61139124  1
  C  C146  1  0.50000000  0.26059514  0.94157358  1
  C  C147  1  0.50000000  0.31574164  0.27790969  1
  C  C148  1  0.50000000  0.32048362  0.61129440  1
  C  C149  1  0.50000000  0.31995346  0.94409739  1
  C  C150  1  0.50000000  0.37553420  0.27748824  1
  C  C151  1  0.50000000  0.38073906  0.61075955  1
  C  C152  1  0.50000000  0.38071562  0.94541877  1
  C  C153  1  0.50000000  0.43510668  0.27627393  1
  C  C154  1  0.50000000  0.44085815  0.61187882  1
  C  C155  1  0.50000000  0.44126373  0.94399013  1
  C  C156  1  0.50000000  0.50141957  0.61494954  1
  C  C157  1  0.50000000  0.50181930  0.93948087  1
  C  C158  1  0.50000000  0.56138235  0.61393798  1
  C  C159  1  0.50000000  0.56118599  0.94130072  1
  C  C160  1  0.50000000  0.62158075  0.61239184  1
  C  C161  1  0.50000000  0.62099098  0.94324359  1
  C  C162  1  0.50000000  0.68023244  0.27799553  1
  C  C163  1  0.50000000  0.68189952  0.61142195  1
  C  C164  1  0.50000000  0.68186791  0.94397862  1
  C  C165  1  0.50000000  0.73965963  0.27645323  1
  C  C166  1  0.50000000  0.74111681  0.60978639  1
  C  C167  1  0.50000000  0.74112550  0.94320293  1
  H  H168  1  0.50000000  0.23559827  0.03396477  1
  H  H169  1  0.50000000  0.23387824  0.37337013  1
  H  H170  1  0.50000000  0.23830373  0.70352821  1
  H  H171  1  0.50000000  0.76431499  0.03796605  1
  H  H172  1  0.50000000  0.76345743  0.36935243  1
  H  H173  1  0.50000000  0.76451189  0.70347662  1
  H  H174  1  0.50000000  0.23386114  0.12656944  1
  H  H175  1  0.50000000  0.23561345  0.46606723  1
  H  H176  1  0.50000000  0.23827705  0.79644674  1
  H  H177  1  0.50000000  0.76345099  0.13061595  1
  H  H178  1  0.50000000  0.76431951  0.46210425  1
  H  H179  1  0.50000000  0.76451430  0.79654807  1
  H  H180  1  0.50000000  0.23323048  0.20350266  1
  H  H181  1  0.50000000  0.23693110  0.53918486  1
  H  H182  1  0.50000000  0.23795655  0.86820372  1
  H  H183  1  0.50000000  0.76311099  0.20367615  1
  H  H184  1  0.50000000  0.76448247  0.53666265  1
  H  H185  1  0.50000000  0.76451831  0.87030357  1
  H  H186  1  0.50000000  0.23323087  0.29649018  1
  H  H187  1  0.50000000  0.23794651  0.63176331  1
  H  H188  1  0.50000000  0.23692337  0.96072270  1
  H  H189  1  0.50000000  0.76310349  0.29635432  1
  H  H190  1  0.50000000  0.76451857  0.62976911  1
  H  H191  1  0.50000000  0.76448952  0.96330076  1
  H  H192  1  0.50000000  0.47662746  0.00629633  1
  H  H193  1  0.50000000  0.53074428  0.00926242  1
  H  H194  1  0.50000000  0.58993151  0.01016114  1
  H  H195  1  0.50000000  0.62734894  0.28789861  1
  H  H196  1  0.50000000  0.62926379  0.04595180  1
  H  H197  1  0.50000000  0.62782174  0.38041725  1
  H  H198  1  0.50000000  0.46093231  0.04918360  1
  H  H199  1  0.50000000  0.45833585  0.36465831  1
  H  H200  1  0.50000000  0.45832935  0.13534316  1
  H  H201  1  0.50000000  0.46092518  0.45082382  1
  H  H202  1  0.50000000  0.62781722  0.11958191  1
  H  H203  1  0.50000000  0.62927374  0.45409799  1
  H  H204  1  0.50000000  0.47665934  0.49370125  1
  H  H205  1  0.50000000  0.53076279  0.49075133  1
  H  H206  1  0.50000000  0.58994384  0.48985068  1
  H  H207  1  0.50000000  0.62736096  0.21215208  1
  H  H208  1  0.50000000  0.45841584  0.20372769  1
  H  H209  1  0.50000000  0.45841651  0.29628190  1
