# generated using pymatgen
data_HC4
_symmetry_space_group_name_H-M   'P 1'
_cell_length_a   10.00000000
_cell_length_b   41.10890000
_cell_length_c   25.92713027
_cell_angle_alpha   90.00000000
_cell_angle_beta   90.00000000
_cell_angle_gamma   90.00000000
_symmetry_Int_Tables_number   1
_chemical_formula_structural   HC4
_chemical_formula_sum   'H42 C168'
_cell_volume   10658.35805496
_cell_formula_units_Z   42
loop_
 _symmetry_equiv_pos_site_id
 _symmetry_equiv_pos_as_xyz
  1  'x, y, z'
loop_
 _atom_site_type_symbol
 _atom_site_label
 _atom_site_symmetry_multiplicity
 _atom_site_fract_x
 _atom_site_fract_y
 _atom_site_fract_z
 _atom_site_occupancy
  C  C0  1  0.50000000  0.28806661  0.30533588  1
  C  C1  1  0.50000000  0.28734414  0.63865788  1
  C  C2  1  0.50000000  0.28748260  0.97222211  1
  C  C3  1  0.50000000  0.34812894  0.30558176  1
  C  C4  1  0.50000000  0.34742554  0.63902213  1
  C  C5  1  0.50000000  0.34754020  0.97217300  1
  C  C6  1  0.50000000  0.40820730  0.30560343  1
  C  C7  1  0.50000000  0.40748776  0.63898425  1
  C  C8  1  0.50000000  0.40746949  0.97185581  1
  C  C9  1  0.50000000  0.46746122  0.30703077  1
  C  C10  1  0.50000000  0.46766458  0.63917086  1
  C  C11  1  0.50000000  0.46734484  0.97181821  1
  C  C12  1  0.50000000  0.52762559  0.63991617  1
  C  C13  1  0.50000000  0.52784161  0.96875924  1
  C  C14  1  0.50000000  0.58766908  0.64072986  1
  C  C15  1  0.50000000  0.58763007  0.96832950  1
  C  C16  1  0.50000000  0.64797474  0.63965751  1
  C  C17  1  0.50000000  0.64716746  0.96832328  1
  C  C18  1  0.50000000  0.72979427  0.30528386  1
  C  C19  1  0.50000000  0.70778829  0.63964141  1
  C  C20  1  0.50000000  0.70928066  0.97180959  1
  C  C21  1  0.50000000  0.28762603  0.02799711  1
  C  C22  1  0.50000000  0.28799407  0.36105932  1
  C  C23  1  0.50000000  0.28731283  0.69443063  1
  C  C24  1  0.50000000  0.34765584  0.02747496  1
  C  C25  1  0.50000000  0.34807948  0.36095069  1
  C  C26  1  0.50000000  0.34741835  0.69423536  1
  C  C27  1  0.50000000  0.40752876  0.02724316  1
  C  C28  1  0.50000000  0.40813278  0.36124173  1
  C  C29  1  0.50000000  0.40739557  0.69445996  1
  C  C30  1  0.50000000  0.46656684  0.02557579  1
  C  C31  1  0.50000000  0.46737029  0.36025319  1
  C  C32  1  0.50000000  0.46749283  0.69458186  1
  C  C33  1  0.50000000  0.52752771  0.69509435  1
  C  C34  1  0.50000000  0.58765143  0.69554676  1
  C  C35  1  0.50000000  0.64778906  0.69492621  1
  C  C36  1  0.50000000  0.71478548  0.02813697  1
  C  C37  1  0.50000000  0.72665014  0.36165157  1
  C  C38  1  0.50000000  0.70771508  0.69534795  1
  C  C39  1  0.50000000  0.25841644  0.05703602  1
  C  C40  1  0.50000000  0.25862612  0.38975672  1
  C  C41  1  0.50000000  0.25793569  0.72337898  1
  C  C42  1  0.50000000  0.31765310  0.05551327  1
  C  C43  1  0.50000000  0.31792311  0.38881511  1
  C  C44  1  0.50000000  0.31725192  0.72210906  1
  C  C45  1  0.50000000  0.37765976  0.05536065  1
  C  C46  1  0.50000000  0.37794098  0.38904271  1
  C  C47  1  0.50000000  0.37747359  0.72212052  1
  C  C48  1  0.50000000  0.43771243  0.05463745  1
  C  C49  1  0.50000000  0.43806691  0.38915617  1
  C  C50  1  0.50000000  0.43748637  0.72227897  1
  C  C51  1  0.50000000  0.49742634  0.72236777  1
  C  C52  1  0.50000000  0.55749791  0.72250080  1
  C  C53  1  0.50000000  0.61791225  0.72242388  1
  C  C54  1  0.50000000  0.68964546  0.06483720  1
  C  C55  1  0.50000000  0.69535712  0.38307087  1
  C  C56  1  0.50000000  0.67778426  0.72260172  1
  C  C57  1  0.50000000  0.74658151  0.04992968  1
  C  C58  1  0.50000000  0.75245436  0.39728601  1
  C  C59  1  0.50000000  0.73696659  0.72357551  1
  C  C60  1  0.50000000  0.25857978  0.11015908  1
  C  C61  1  0.50000000  0.25847601  0.44287989  1
  C  C62  1  0.50000000  0.25791715  0.77646948  1
  C  C63  1  0.50000000  0.31787197  0.11107997  1
  C  C64  1  0.50000000  0.31771618  0.44436504  1
  C  C65  1  0.50000000  0.31723518  0.77773503  1
  C  C66  1  0.50000000  0.37789691  0.11083942  1
  C  C67  1  0.50000000  0.37771679  0.44451802  1
  C  C68  1  0.50000000  0.37745062  0.77767904  1
  C  C69  1  0.50000000  0.43802315  0.11069565  1
  C  C70  1  0.50000000  0.43777821  0.44521959  1
  C  C71  1  0.50000000  0.43747913  0.77759357  1
  C  C72  1  0.50000000  0.49741273  0.77756390  1
  C  C73  1  0.50000000  0.55748077  0.77752416  1
  C  C74  1  0.50000000  0.61789474  0.77768226  1
  C  C75  1  0.50000000  0.69519897  0.11716324  1
  C  C76  1  0.50000000  0.68981075  0.43538540  1
  C  C77  1  0.50000000  0.67776463  0.77762776  1
  C  C78  1  0.50000000  0.75230444  0.10291248  1
  C  C79  1  0.50000000  0.74675830  0.45027473  1
  C  C80  1  0.50000000  0.73694392  0.77674023  1
  C  C81  1  0.50000000  0.28794902  0.13884351  1
  C  C82  1  0.50000000  0.28769802  0.47189575  1
  C  C83  1  0.50000000  0.28729639  0.80540925  1
  C  C84  1  0.50000000  0.34804091  0.13893812  1
  C  C85  1  0.50000000  0.34771495  0.47240221  1
  C  C86  1  0.50000000  0.34738715  0.80560543  1
  C  C87  1  0.50000000  0.40809410  0.13862452  1
  C  C88  1  0.50000000  0.40759278  0.47262067  1
  C  C89  1  0.50000000  0.40736896  0.80537062  1
  C  C90  1  0.50000000  0.46733547  0.13958007  1
  C  C91  1  0.50000000  0.46663777  0.47428824  1
  C  C92  1  0.50000000  0.46747434  0.80531880  1
  C  C93  1  0.50000000  0.52749532  0.80487973  1
  C  C94  1  0.50000000  0.58761991  0.80452123  1
  C  C95  1  0.50000000  0.64775349  0.80524644  1
  C  C96  1  0.50000000  0.72650230  0.13855516  1
  C  C97  1  0.50000000  0.71495458  0.47208214  1
  C  C98  1  0.50000000  0.70768056  0.80491177  1
  C  C99  1  0.50000000  0.28804321  0.19457245  1
  C  C100  1  0.50000000  0.28755380  0.52766307  1
  C  C101  1  0.50000000  0.28731793  0.86120201  1
  C  C102  1  0.50000000  0.34812178  0.19430171  1
  C  C103  1  0.50000000  0.34759920  0.52770366  1
  C  C104  1  0.50000000  0.34739691  0.86080651  1
  C  C105  1  0.50000000  0.40818724  0.19427876  1
  C  C106  1  0.50000000  0.40753486  0.52801389  1
  C  C107  1  0.50000000  0.40744382  0.86085707  1
  C  C108  1  0.50000000  0.46744034  0.19280825  1
  C  C109  1  0.50000000  0.46742148  0.52804870  1
  C  C110  1  0.50000000  0.46762154  0.86071898  1
  C  C111  1  0.50000000  0.52793635  0.53120955  1
  C  C112  1  0.50000000  0.52757526  0.86004889  1
  C  C113  1  0.50000000  0.58774702  0.53174241  1
  C  C114  1  0.50000000  0.58761945  0.85934491  1
  C  C115  1  0.50000000  0.64728496  0.53186104  1
  C  C116  1  0.50000000  0.64791219  0.86051011  1
  C  C117  1  0.50000000  0.72968487  0.19492125  1
  C  C118  1  0.50000000  0.70940711  0.52841175  1
  C  C119  1  0.50000000  0.70771860  0.86060651  1
  C  C120  1  0.50000000  0.25877671  0.22341524  1
  C  C121  1  0.50000000  0.25819013  0.55645077  1
  C  C122  1  0.50000000  0.25804794  0.89024604  1
  C  C123  1  0.50000000  0.31805645  0.22218386  1
  C  C124  1  0.50000000  0.31745055  0.55550279  1
  C  C125  1  0.50000000  0.31730539  0.88880265  1
  C  C126  1  0.50000000  0.37810309  0.22225268  1
  C  C127  1  0.50000000  0.37748759  0.55578358  1
  C  C128  1  0.50000000  0.37743595  0.88872013  1
  C  C129  1  0.50000000  0.43822928  0.22196367  1
  C  C130  1  0.50000000  0.43742560  0.55614052  1
  C  C131  1  0.50000000  0.43740270  0.88855627  1
  C  C132  1  0.50000000  0.49816221  0.55630602  1
  C  C133  1  0.50000000  0.49753473  0.88789240  1
  C  C134  1  0.50000000  0.55799603  0.55784843  1
  C  C135  1  0.50000000  0.55763806  0.88673568  1
  C  C136  1  0.50000000  0.61766126  0.55854394  1
  C  C137  1  0.50000000  0.61762510  0.88649535  1
  C  C138  1  0.50000000  0.70075057  0.22375921  1
  C  C139  1  0.50000000  0.67822798  0.55536935  1
  C  C140  1  0.50000000  0.67800798  0.88867093  1
  C  C141  1  0.50000000  0.75905137  0.22299783  1
  C  C142  1  0.50000000  0.73747264  0.55904938  1
  C  C143  1  0.50000000  0.73704785  0.88798299  1
  C  C144  1  0.50000000  0.25879391  0.27652868  1
  C  C145  1  0.50000000  0.25808684  0.60959577  1
  C  C146  1  0.50000000  0.25812816  0.94339372  1
  C  C147  1  0.50000000  0.31806110  0.27770076  1
  C  C148  1  0.50000000  0.31734313  0.61106880  1
  C  C149  1  0.50000000  0.31738093  0.94439790  1
  C  C150  1  0.50000000  0.37811080  0.27765435  1
  C  C151  1  0.50000000  0.37747757  0.61112962  1
  C  C152  1  0.50000000  0.37742806  0.94407329  1
  C  C153  1  0.50000000  0.43823860  0.27790546  1
  C  C154  1  0.50000000  0.43745322  0.61130532  1
  C  C155  1  0.50000000  0.43735825  0.94372177  1
  C  C156  1  0.50000000  0.49759071  0.61202132  1
  C  C157  1  0.50000000  0.49808922  0.94359693  1
  C  C158  1  0.50000000  0.55770649  0.61327969  1
  C  C159  1  0.50000000  0.55790303  0.94216524  1
  C  C160  1  0.50000000  0.61769580  0.61364353  1
  C  C161  1  0.50000000  0.61756165  0.94159102  1
  C  C162  1  0.50000000  0.70081312  0.27657391  1
  C  C163  1  0.50000000  0.67809039  0.61153080  1
  C  C164  1  0.50000000  0.67811852  0.94483741  1
  C  C165  1  0.50000000  0.75911137  0.27708322  1
  C  C166  1  0.50000000  0.73713038  0.61228741  1
  C  C167  1  0.50000000  0.73735951  0.94121213  1
  H  H168  1  0.50000000  0.23496576  0.03721680  1
  H  H169  1  0.50000000  0.23524399  0.36971159  1
  H  H170  1  0.50000000  0.23451980  0.70336775  1
  H  H171  1  0.50000000  0.76816950  0.02538630  1
  H  H172  1  0.50000000  0.77768914  0.38370466  1
  H  H173  1  0.50000000  0.76041490  0.70376367  1
  H  H174  1  0.50000000  0.23522798  0.13026607  1
  H  H175  1  0.50000000  0.23503319  0.46274792  1
  H  H176  1  0.50000000  0.23447372  0.79639718  1
  H  H177  1  0.50000000  0.77753533  0.11652238  1
  H  H178  1  0.50000000  0.76839230  0.47473764  1
  H  H179  1  0.50000000  0.76036732  0.79662574  1
  H  H180  1  0.50000000  0.23537647  0.20345303  1
  H  H181  1  0.50000000  0.23478414  0.53644167  1
  H  H182  1  0.50000000  0.23460518  0.87034731  1
  H  H183  1  0.50000000  0.78243613  0.20264659  1
  H  H184  1  0.50000000  0.76128836  0.54064418  1
  H  H185  1  0.50000000  0.76038200  0.86794110  1
  H  H186  1  0.50000000  0.23541731  0.29655509  1
  H  H187  1  0.50000000  0.23462155  0.62942856  1
  H  H188  1  0.50000000  0.23472256  0.96339201  1
  H  H189  1  0.50000000  0.78254729  0.29728689  1
  H  H190  1  0.50000000  0.76045106  0.63238904  1
  H  H191  1  0.50000000  0.76116891  0.95961081  1
  H  H192  1  0.50000000  0.49101673  0.28741314  1
  H  H193  1  0.50000000  0.52906141  0.01088293  1
  H  H194  1  0.50000000  0.58776646  0.01062022  1
  H  H195  1  0.50000000  0.64400024  0.00959773  1
  H  H196  1  0.50000000  0.48958716  0.04631970  1
  H  H197  1  0.50000000  0.49092874  0.37987091  1
  H  H198  1  0.50000000  0.66427950  0.05449744  1
  H  H199  1  0.50000000  0.67364735  0.35905065  1
  H  H200  1  0.50000000  0.67351040  0.14123678  1
  H  H201  1  0.50000000  0.66442901  0.44565995  1
  H  H202  1  0.50000000  0.49088367  0.11992029  1
  H  H203  1  0.50000000  0.48966018  0.45354278  1
  H  H204  1  0.50000000  0.49098609  0.21244832  1
  H  H205  1  0.50000000  0.52920219  0.48908795  1
  H  H206  1  0.50000000  0.58788880  0.48944573  1
  H  H207  1  0.50000000  0.64417520  0.49056944  1
  H  H208  1  0.50000000  0.67699678  0.20527332  1
  H  H209  1  0.50000000  0.67712308  0.29525900  1
