# generated using pymatgen
data_HC6
_symmetry_space_group_name_H-M   'P 1'
_cell_length_a   10.00000000
_cell_length_b   41.10890000
_cell_length_c   25.79513155
_cell_angle_alpha   90.00000000
_cell_angle_beta   90.00000000
_cell_angle_gamma   90.00000000
_symmetry_Int_Tables_number   1
_chemical_formula_structural   HC6
_chemical_formula_sum   'H28 C168'
_cell_volume   10604.09483191
_cell_formula_units_Z   28
loop_
 _symmetry_equiv_pos_site_id
 _symmetry_equiv_pos_as_xyz
  1  'x, y, z'
loop_
 _atom_site_type_symbol
 _atom_site_label
 _atom_site_symmetry_multiplicity
 _atom_site_fract_x
 _atom_site_fract_y
 _atom_site_fract_z
 _atom_site_occupancy
  C  C0  1  0.50000000  0.28909447  0.63824317  1
  C  C1  1  0.50000000  0.29006351  0.97182057  1
  C  C2  1  0.50000000  0.34962621  0.63908595  1
  C  C3  1  0.50000000  0.34989446  0.97027964  1
  C  C4  1  0.50000000  0.41075012  0.30680732  1
  C  C5  1  0.50000000  0.40972222  0.63909807  1
  C  C6  1  0.50000000  0.41031460  0.97220075  1
  C  C7  1  0.50000000  0.46994739  0.30566938  1
  C  C8  1  0.50000000  0.46976292  0.63902159  1
  C  C9  1  0.50000000  0.47003380  0.97198150  1
  C  C10  1  0.50000000  0.52998369  0.30548310  1
  C  C11  1  0.50000000  0.52990348  0.63893737  1
  C  C12  1  0.50000000  0.53001683  0.97187723  1
  C  C13  1  0.50000000  0.59009797  0.30548459  1
  C  C14  1  0.50000000  0.58999674  0.63906649  1
  C  C15  1  0.50000000  0.59003723  0.97192337  1
  C  C16  1  0.50000000  0.65009028  0.30568922  1
  C  C17  1  0.50000000  0.64995120  0.63924927  1
  C  C18  1  0.50000000  0.64988874  0.97199155  1
  C  C19  1  0.50000000  0.70924873  0.30653480  1
  C  C20  1  0.50000000  0.71026403  0.63847607  1
  C  C21  1  0.50000000  0.70969048  0.97193886  1
  C  C22  1  0.50000000  0.28918504  0.69467126  1
  C  C23  1  0.50000000  0.34961901  0.69469204  1
  C  C24  1  0.50000000  0.41126582  0.02633238  1
  C  C25  1  0.50000000  0.41080014  0.36038209  1
  C  C26  1  0.50000000  0.40967680  0.69445658  1
  C  C27  1  0.50000000  0.47021535  0.02738152  1
  C  C28  1  0.50000000  0.46996553  0.36126959  1
  C  C29  1  0.50000000  0.46972816  0.69456783  1
  C  C30  1  0.50000000  0.53008674  0.02763694  1
  C  C31  1  0.50000000  0.53000479  0.36139764  1
  C  C32  1  0.50000000  0.52989223  0.69462148  1
  C  C33  1  0.50000000  0.59010757  0.02758351  1
  C  C34  1  0.50000000  0.59014658  0.36137057  1
  C  C35  1  0.50000000  0.59001690  0.69453148  1
  C  C36  1  0.50000000  0.65000463  0.02733761  1
  C  C37  1  0.50000000  0.65014721  0.36126423  1
  C  C38  1  0.50000000  0.65000473  0.69451042  1
  C  C39  1  0.50000000  0.70919771  0.02652332  1
  C  C40  1  0.50000000  0.70926599  0.36014821  1
  C  C41  1  0.50000000  0.71028732  0.69452328  1
  C  C42  1  0.50000000  0.26005268  0.72323220  1
  C  C43  1  0.50000000  0.31929810  0.72222594  1
  C  C44  1  0.50000000  0.37950716  0.72215208  1
  C  C45  1  0.50000000  0.44015847  0.05475862  1
  C  C46  1  0.50000000  0.44002339  0.38889373  1
  C  C47  1  0.50000000  0.43973773  0.72216654  1
  C  C48  1  0.50000000  0.50024486  0.05532092  1
  C  C49  1  0.50000000  0.50018223  0.38908484  1
  C  C50  1  0.50000000  0.49985276  0.72227084  1
  C  C51  1  0.50000000  0.56008703  0.05542554  1
  C  C52  1  0.50000000  0.56004087  0.38911611  1
  C  C53  1  0.50000000  0.55987875  0.72226876  1
  C  C54  1  0.50000000  0.62002353  0.05522578  1
  C  C55  1  0.50000000  0.61992995  0.38902685  1
  C  C56  1  0.50000000  0.61998074  0.72215741  1
  C  C57  1  0.50000000  0.68036216  0.05474018  1
  C  C58  1  0.50000000  0.68016261  0.38875917  1
  C  C59  1  0.50000000  0.68027090  0.72216842  1
  C  C60  1  0.50000000  0.73960931  0.72332416  1
  C  C61  1  0.50000000  0.26006557  0.77684919  1
  C  C62  1  0.50000000  0.31930371  0.77779288  1
  C  C63  1  0.50000000  0.37950387  0.77785279  1
  C  C64  1  0.50000000  0.44001061  0.11111940  1
  C  C65  1  0.50000000  0.44016836  0.44525126  1
  C  C66  1  0.50000000  0.43973606  0.77782882  1
  C  C67  1  0.50000000  0.50017790  0.11091468  1
  C  C68  1  0.50000000  0.50024853  0.44467282  1
  C  C69  1  0.50000000  0.49985386  0.77771306  1
  C  C70  1  0.50000000  0.56004268  0.11086410  1
  C  C71  1  0.50000000  0.56008486  0.44455253  1
  C  C72  1  0.50000000  0.55987945  0.77771045  1
  C  C73  1  0.50000000  0.61993679  0.11095696  1
  C  C74  1  0.50000000  0.62001955  0.44475546  1
  C  C75  1  0.50000000  0.61997824  0.77781108  1
  C  C76  1  0.50000000  0.68017848  0.11121658  1
  C  C77  1  0.50000000  0.68035068  0.44523589  1
  C  C78  1  0.50000000  0.68026020  0.77779416  1
  C  C79  1  0.50000000  0.73959751  0.77672390  1
  C  C80  1  0.50000000  0.28920282  0.80537320  1
  C  C81  1  0.50000000  0.34961878  0.80532894  1
  C  C82  1  0.50000000  0.41080125  0.13968101  1
  C  C83  1  0.50000000  0.41126080  0.47364744  1
  C  C84  1  0.50000000  0.40967601  0.80554160  1
  C  C85  1  0.50000000  0.46995915  0.13873581  1
  C  C86  1  0.50000000  0.47022213  0.47261959  1
  C  C87  1  0.50000000  0.46972991  0.80542196  1
  C  C88  1  0.50000000  0.53000562  0.13858438  1
  C  C89  1  0.50000000  0.53008827  0.47234762  1
  C  C90  1  0.50000000  0.52989361  0.80536327  1
  C  C91  1  0.50000000  0.59015011  0.13860786  1
  C  C92  1  0.50000000  0.59010497  0.47239304  1
  C  C93  1  0.50000000  0.59001685  0.80544464  1
  C  C94  1  0.50000000  0.65015763  0.13872027  1
  C  C95  1  0.50000000  0.65000008  0.47264120  1
  C  C96  1  0.50000000  0.64999798  0.80545806  1
  C  C97  1  0.50000000  0.70926744  0.13986488  1
  C  C98  1  0.50000000  0.70919647  0.47341765  1
  C  C99  1  0.50000000  0.71026154  0.80546790  1
  C  C100  1  0.50000000  0.29005653  0.52830401  1
  C  C101  1  0.50000000  0.28910994  0.86179360  1
  C  C102  1  0.50000000  0.34987913  0.52974191  1
  C  C103  1  0.50000000  0.34962838  0.86093866  1
  C  C104  1  0.50000000  0.41076005  0.19325128  1
  C  C105  1  0.50000000  0.41030082  0.52778434  1
  C  C106  1  0.50000000  0.40972376  0.86089332  1
  C  C107  1  0.50000000  0.46994370  0.19434602  1
  C  C108  1  0.50000000  0.47003361  0.52801555  1
  C  C109  1  0.50000000  0.46976551  0.86096423  1
  C  C110  1  0.50000000  0.52998258  0.19449895  1
  C  C111  1  0.50000000  0.53001661  0.52810863  1
  C  C112  1  0.50000000  0.52990429  0.86104679  1
  C  C113  1  0.50000000  0.59010040  0.19449364  1
  C  C114  1  0.50000000  0.59003867  0.52805620  1
  C  C115  1  0.50000000  0.58999513  0.86090761  1
  C  C116  1  0.50000000  0.65009536  0.19430487  1
  C  C117  1  0.50000000  0.64989500  0.52799013  1
  C  C118  1  0.50000000  0.64994020  0.86071614  1
  C  C119  1  0.50000000  0.70923444  0.19346841  1
  C  C120  1  0.50000000  0.70970227  0.52801426  1
  C  C121  1  0.50000000  0.71023350  0.86149779  1
  C  C122  1  0.50000000  0.26067607  0.55469325  1
  C  C123  1  0.50000000  0.26025593  0.89099700  1
  C  C124  1  0.50000000  0.31977352  0.55600144  1
  C  C125  1  0.50000000  0.31949996  0.88853882  1
  C  C126  1  0.50000000  0.37947262  0.55567252  1
  C  C127  1  0.50000000  0.37962297  0.88854649  1
  C  C128  1  0.50000000  0.43994591  0.22189554  1
  C  C129  1  0.50000000  0.44004784  0.55581352  1
  C  C130  1  0.50000000  0.43990378  0.88850322  1
  C  C131  1  0.50000000  0.50015222  0.22218582  1
  C  C132  1  0.50000000  0.50010082  0.55583610  1
  C  C133  1  0.50000000  0.49998366  0.88872127  1
  C  C134  1  0.50000000  0.56003136  0.22223516  1
  C  C135  1  0.50000000  0.55995535  0.55583906  1
  C  C136  1  0.50000000  0.55993897  0.88872930  1
  C  C137  1  0.50000000  0.61992032  0.22216411  1
  C  C138  1  0.50000000  0.61984034  0.55576638  1
  C  C139  1  0.50000000  0.61996450  0.88854752  1
  C  C140  1  0.50000000  0.68006388  0.22192457  1
  C  C141  1  0.50000000  0.67978378  0.55599773  1
  C  C142  1  0.50000000  0.68008962  0.88854173  1
  C  C143  1  0.50000000  0.73946527  0.55600102  1
  C  C144  1  0.50000000  0.73962190  0.89063987  1
  C  C145  1  0.50000000  0.26022417  0.60906640  1
  C  C146  1  0.50000000  0.26070529  0.94535122  1
  C  C147  1  0.50000000  0.31949505  0.61151414  1
  C  C148  1  0.50000000  0.31977607  0.94406595  1
  C  C149  1  0.50000000  0.37961545  0.61145613  1
  C  C150  1  0.50000000  0.37948121  0.94432482  1
  C  C151  1  0.50000000  0.43994249  0.27814961  1
  C  C152  1  0.50000000  0.43989993  0.61148124  1
  C  C153  1  0.50000000  0.44005564  0.94417127  1
  C  C154  1  0.50000000  0.50015194  0.27781272  1
  C  C155  1  0.50000000  0.49998292  0.61126534  1
  C  C156  1  0.50000000  0.50010073  0.94415617  1
  C  C157  1  0.50000000  0.56003026  0.27774298  1
  C  C158  1  0.50000000  0.55993828  0.61124839  1
  C  C159  1  0.50000000  0.55995452  0.94414191  1
  C  C160  1  0.50000000  0.61991866  0.27782157  1
  C  C161  1  0.50000000  0.61996975  0.61142422  1
  C  C162  1  0.50000000  0.61983610  0.94420934  1
  C  C163  1  0.50000000  0.68006634  0.27809124  1
  C  C164  1  0.50000000  0.68011024  0.61143110  1
  C  C165  1  0.50000000  0.67977029  0.94397259  1
  C  C166  1  0.50000000  0.73965521  0.60931296  1
  C  C167  1  0.50000000  0.73944328  0.94393081  1
  H  H168  1  0.50000000  0.23666419  0.70309957  1
  H  H169  1  0.50000000  0.76302568  0.70324805  1
  H  H170  1  0.50000000  0.23669843  0.79703526  1
  H  H171  1  0.50000000  0.76299045  0.79687610  1
  H  H172  1  0.50000000  0.23768739  0.53314070  1
  H  H173  1  0.50000000  0.23659927  0.87163210  1
  H  H174  1  0.50000000  0.76236646  0.53419362  1
  H  H175  1  0.50000000  0.76308171  0.87070434  1
  H  H176  1  0.50000000  0.23662207  0.62863547  1
  H  H177  1  0.50000000  0.23764956  0.96669619  1
  H  H178  1  0.50000000  0.76309153  0.62933185  1
  H  H179  1  0.50000000  0.76241316  0.96551413  1
  H  H180  1  0.50000000  0.29069498  0.01431650  1
  H  H181  1  0.50000000  0.34899236  0.01263997  1
  H  H182  1  0.50000000  0.38728725  0.28687688  1
  H  H183  1  0.50000000  0.73260431  0.28636090  1
  H  H184  1  0.50000000  0.38834843  0.04736637  1
  H  H185  1  0.50000000  0.38733853  0.38036967  1
  H  H186  1  0.50000000  0.73269938  0.04630922  1
  H  H187  1  0.50000000  0.73264688  0.38024354  1
  H  H188  1  0.50000000  0.38729366  0.11985248  1
  H  H189  1  0.50000000  0.38838414  0.45247366  1
  H  H190  1  0.50000000  0.73270573  0.11995091  1
  H  H191  1  0.50000000  0.73265571  0.45347694  1
  H  H192  1  0.50000000  0.29071275  0.48584679  1
  H  H193  1  0.50000000  0.34897512  0.48737422  1
  H  H194  1  0.50000000  0.38728992  0.21315778  1
  H  H195  1  0.50000000  0.73261507  0.21354290  1
