# generated using pymatgen
data_HC6
_symmetry_space_group_name_H-M   'P 1'
_cell_length_a   20.00000000
_cell_length_b   40.19450000
_cell_length_c   25.78763004
_cell_angle_alpha   90.00000000
_cell_angle_beta   90.00000000
_cell_angle_gamma   90.00000000
_symmetry_Int_Tables_number   1
_chemical_formula_structural   HC6
_chemical_formula_sum   'H26 C156'
_cell_volume   20730.41791517
_cell_formula_units_Z   26
loop_
 _symmetry_equiv_pos_site_id
 _symmetry_equiv_pos_as_xyz
  1  'x, y, z'
loop_
 _atom_site_type_symbol
 _atom_site_label
 _atom_site_symmetry_multiplicity
 _atom_site_fract_x
 _atom_site_fract_y
 _atom_site_fract_z
 _atom_site_occupancy
  C  C0  1  0.50000000  0.28539581  0.60947821  1
  C  C1  1  0.50000000  0.28556561  0.77681330  1
  C  C2  1  0.50000000  0.28573231  0.94400505  1
  C  C3  1  0.50000000  0.31653230  0.13986405  1
  C  C4  1  0.50000000  0.31550507  0.63857469  1
  C  C5  1  0.50000000  0.31650161  0.30661743  1
  C  C6  1  0.50000000  0.31557485  0.80558760  1
  C  C7  1  0.50000000  0.31649339  0.47347359  1
  C  C8  1  0.50000000  0.31617215  0.97202550  1
  C  C9  1  0.50000000  0.28556947  0.55617038  1
  C  C10  1  0.50000000  0.28555065  0.72344479  1
  C  C11  1  0.50000000  0.28552487  0.89073560  1
  C  C12  1  0.50000000  0.34632137  0.11129081  1
  C  C13  1  0.50000000  0.34634313  0.61148976  1
  C  C14  1  0.50000000  0.34635256  0.27815187  1
  C  C15  1  0.50000000  0.34625655  0.77786831  1
  C  C16  1  0.50000000  0.34601952  0.44529182  1
  C  C17  1  0.50000000  0.34677688  0.94405410  1
  C  C18  1  0.50000000  0.37701196  0.13882231  1
  C  C19  1  0.50000000  0.37720888  0.63929422  1
  C  C20  1  0.50000000  0.37701530  0.30575458  1
  C  C21  1  0.50000000  0.37720428  0.80552312  1
  C  C22  1  0.50000000  0.37708435  0.47263668  1
  C  C23  1  0.50000000  0.37734539  0.97202857  1
  C  C24  1  0.50000000  0.31664534  0.02660481  1
  C  C25  1  0.50000000  0.31601428  0.52809306  1
  C  C26  1  0.50000000  0.31655774  0.19347196  1
  C  C27  1  0.50000000  0.31553331  0.69458513  1
  C  C28  1  0.50000000  0.31645603  0.36021641  1
  C  C29  1  0.50000000  0.31559649  0.86158292  1
  C  C30  1  0.50000000  0.34616766  0.05480090  1
  C  C31  1  0.50000000  0.34665231  0.55603360  1
  C  C32  1  0.50000000  0.34637631  0.22197931  1
  C  C33  1  0.50000000  0.34624449  0.72222457  1
  C  C34  1  0.50000000  0.34623105  0.38883553  1
  C  C35  1  0.50000000  0.34643377  0.88861751  1
  C  C36  1  0.50000000  0.40792443  0.11102770  1
  C  C37  1  0.50000000  0.40790489  0.61149040  1
  C  C38  1  0.50000000  0.40790329  0.27791995  1
  C  C39  1  0.50000000  0.40792263  0.77781527  1
  C  C40  1  0.50000000  0.40778991  0.44476610  1
  C  C41  1  0.50000000  0.40808791  0.94421894  1
  C  C42  1  0.50000000  0.43839559  0.13868560  1
  C  C43  1  0.50000000  0.43856401  0.63912339  1
  C  C44  1  0.50000000  0.43841841  0.30554291  1
  C  C45  1  0.50000000  0.43856387  0.80543420  1
  C  C46  1  0.50000000  0.43840744  0.47242016  1
  C  C47  1  0.50000000  0.43855690  0.97195576  1
  C  C48  1  0.50000000  0.37720588  0.02737074  1
  C  C49  1  0.50000000  0.37723053  0.52802326  1
  C  C50  1  0.50000000  0.37705177  0.19440801  1
  C  C51  1  0.50000000  0.37718715  0.69453766  1
  C  C52  1  0.50000000  0.37693780  0.36130595  1
  C  C53  1  0.50000000  0.37726188  0.86076883  1
  C  C54  1  0.50000000  0.40786412  0.05530019  1
  C  C55  1  0.50000000  0.40800077  0.55584133  1
  C  C56  1  0.50000000  0.40791691  0.22227055  1
  C  C57  1  0.50000000  0.40792116  0.72219502  1
  C  C58  1  0.50000000  0.40786354  0.38904602  1
  C  C59  1  0.50000000  0.40794994  0.88857640  1
  C  C60  1  0.50000000  0.46920647  0.11096404  1
  C  C61  1  0.50000000  0.46930225  0.61132368  1
  C  C62  1  0.50000000  0.46919833  0.27782153  1
  C  C63  1  0.50000000  0.46935432  0.77768053  1
  C  C64  1  0.50000000  0.46913328  0.44457361  1
  C  C65  1  0.50000000  0.46930415  0.94414960  1
  C  C66  1  0.50000000  0.49996387  0.13867360  1
  C  C67  1  0.50000000  0.50002660  0.63903560  1
  C  C68  1  0.50000000  0.49996469  0.30552513  1
  C  C69  1  0.50000000  0.50004695  0.80536318  1
  C  C70  1  0.50000000  0.49984816  0.47235931  1
  C  C71  1  0.50000000  0.49994496  0.97190224  1
  C  C72  1  0.50000000  0.43846813  0.02764951  1
  C  C73  1  0.50000000  0.43849650  0.52813423  1
  C  C74  1  0.50000000  0.43842621  0.19458767  1
  C  C75  1  0.50000000  0.43856266  0.69459010  1
  C  C76  1  0.50000000  0.43835353  0.36142129  1
  C  C77  1  0.50000000  0.43858819  0.86092359  1
  C  C78  1  0.50000000  0.46917800  0.05550813  1
  C  C79  1  0.50000000  0.46926927  0.55592822  1
  C  C80  1  0.50000000  0.46919753  0.22231240  1
  C  C81  1  0.50000000  0.46935259  0.72233386  1
  C  C82  1  0.50000000  0.46917025  0.38913609  1
  C  C83  1  0.50000000  0.46931279  0.88875213  1
  C  C84  1  0.50000000  0.53046780  0.11095938  1
  C  C85  1  0.50000000  0.53063865  0.61141001  1
  C  C86  1  0.50000000  0.53050068  0.27789063  1
  C  C87  1  0.50000000  0.53070644  0.77771560  1
  C  C88  1  0.50000000  0.53038975  0.44470801  1
  C  C89  1  0.50000000  0.53050531  0.94414167  1
  C  C90  1  0.50000000  0.56139192  0.13877350  1
  C  C91  1  0.50000000  0.56150871  0.63918246  1
  C  C92  1  0.50000000  0.56139151  0.30574288  1
  C  C93  1  0.50000000  0.56153811  0.80544632  1
  C  C94  1  0.50000000  0.56110560  0.47267534  1
  C  C95  1  0.50000000  0.56127998  0.97195033  1
  C  C96  1  0.50000000  0.49987111  0.02768398  1
  C  C97  1  0.50000000  0.49993147  0.52816474  1
  C  C98  1  0.50000000  0.49996366  0.19460146  1
  C  C99  1  0.50000000  0.50004282  0.69465432  1
  C  C100  1  0.50000000  0.49993276  0.36143095  1
  C  C101  1  0.50000000  0.50002112  0.86100947  1
  C  C102  1  0.50000000  0.53040507  0.05533022  1
  C  C103  1  0.50000000  0.53052646  0.55592325  1
  C  C104  1  0.50000000  0.53048342  0.22225887  1
  C  C105  1  0.50000000  0.53070600  0.72227042  1
  C  C106  1  0.50000000  0.53044395  0.38907865  1
  C  C107  1  0.50000000  0.53061946  0.88865143  1
  C  C108  1  0.50000000  0.59203996  0.11119678  1
  C  C109  1  0.50000000  0.59220220  0.61157060  1
  C  C110  1  0.50000000  0.59205842  0.27822692  1
  C  C111  1  0.50000000  0.59230895  0.77788197  1
  C  C112  1  0.50000000  0.59189363  0.44530833  1
  C  C113  1  0.50000000  0.59196760  0.94417373  1
  C  C114  1  0.50000000  0.62190961  0.13976978  1
  C  C115  1  0.50000000  0.62299253  0.63897743  1
  C  C116  1  0.50000000  0.62193048  0.30681756  1
  C  C117  1  0.50000000  0.62293793  0.80565643  1
  C  C118  1  0.50000000  0.62146882  0.47358129  1
  C  C119  1  0.50000000  0.62241253  0.97221239  1
  C  C120  1  0.50000000  0.56109217  0.02733566  1
  C  C121  1  0.50000000  0.56131976  0.52809704  1
  C  C122  1  0.50000000  0.56137966  0.19439501  1
  C  C123  1  0.50000000  0.56153871  0.69455338  1
  C  C124  1  0.50000000  0.56138054  0.36131701  1
  C  C125  1  0.50000000  0.56147390  0.86083511  1
  C  C126  1  0.50000000  0.59187650  0.05477389  1
  C  C127  1  0.50000000  0.59204405  0.55588536  1
  C  C128  1  0.50000000  0.59204590  0.22193963  1
  C  C129  1  0.50000000  0.59231861  0.72208189  1
  C  C130  1  0.50000000  0.59200077  0.38892235  1
  C  C131  1  0.50000000  0.59213714  0.88849012  1
  C  C132  1  0.50000000  0.65395891  0.61093284  1
  C  C133  1  0.50000000  0.65392493  0.77782810  1
  C  C134  1  0.50000000  0.65390492  0.94449972  1
  C  C135  1  0.50000000  0.68484568  0.63837129  1
  C  C136  1  0.50000000  0.68458323  0.80542483  1
  C  C137  1  0.50000000  0.68449293  0.97097546  1
  C  C138  1  0.50000000  0.62142012  0.02644750  1
  C  C139  1  0.50000000  0.62251566  0.52783145  1
  C  C140  1  0.50000000  0.62190539  0.19334371  1
  C  C141  1  0.50000000  0.62296811  0.69436386  1
  C  C142  1  0.50000000  0.62188294  0.36039474  1
  C  C143  1  0.50000000  0.62289968  0.86104617  1
  C  C144  1  0.50000000  0.65403468  0.55554124  1
  C  C145  1  0.50000000  0.65393059  0.72225505  1
  C  C146  1  0.50000000  0.65383643  0.88911628  1
  C  C147  1  0.50000000  0.71479939  0.61015362  1
  C  C148  1  0.50000000  0.71446148  0.77688327  1
  C  C149  1  0.50000000  0.71448553  0.94408174  1
  C  C150  1  0.50000000  0.68471750  0.52921760  1
  C  C151  1  0.50000000  0.68461589  0.69474051  1
  C  C152  1  0.50000000  0.68473535  0.86178066  1
  C  C153  1  0.50000000  0.71469544  0.55618604  1
  C  C154  1  0.50000000  0.71445915  0.72337099  1
  C  C155  1  0.50000000  0.71463211  0.89011062  1
  H  H156  1  0.50000000  0.26143218  0.62952336  1
  H  H157  1  0.50000000  0.26161846  0.79688105  1
  H  H158  1  0.50000000  0.26222236  0.96555336  1
  H  H159  1  0.50000000  0.26210248  0.53447345  1
  H  H160  1  0.50000000  0.26157225  0.70347894  1
  H  H161  1  0.50000000  0.26152217  0.87083533  1
  H  H162  1  0.50000000  0.73871358  0.63026712  1
  H  H163  1  0.50000000  0.73841223  0.79690735  1
  H  H164  1  0.50000000  0.73808199  0.96533624  1
  H  H165  1  0.50000000  0.73823953  0.53475384  1
  H  H166  1  0.50000000  0.73842824  0.70342289  1
  H  H167  1  0.50000000  0.73854704  0.87000136  1
  H  H168  1  0.50000000  0.68566896  0.48687459  1
  H  H169  1  0.50000000  0.64603103  0.12019722  1
  H  H170  1  0.50000000  0.64597319  0.28703989  1
  H  H171  1  0.50000000  0.64486161  0.45236465  1
  H  H172  1  0.50000000  0.68526171  0.01334299  1
  H  H173  1  0.50000000  0.64485359  0.04749017  1
  H  H174  1  0.50000000  0.64589454  0.21327196  1
  H  H175  1  0.50000000  0.64593791  0.38018654  1
  H  H176  1  0.50000000  0.29250859  0.12004563  1
  H  H177  1  0.50000000  0.29254147  0.28666807  1
  H  H178  1  0.50000000  0.29244104  0.45361947  1
  H  H179  1  0.50000000  0.29258559  0.04634776  1
  H  H180  1  0.50000000  0.29258825  0.21338901  1
  H  H181  1  0.50000000  0.29245225  0.38011466  1
