# generated using pymatgen
data_HC4
_symmetry_space_group_name_H-M   'P 1'
_cell_length_a   10.00000000
_cell_length_b   41.10890000
_cell_length_c   26.02141888
_cell_angle_alpha   90.00000000
_cell_angle_beta   90.00000000
_cell_angle_gamma   90.00000000
_symmetry_Int_Tables_number   1
_chemical_formula_structural   HC4
_chemical_formula_sum   'H42 C168'
_cell_volume   10697.11906399
_cell_formula_units_Z   42
loop_
 _symmetry_equiv_pos_site_id
 _symmetry_equiv_pos_as_xyz
  1  'x, y, z'
loop_
 _atom_site_type_symbol
 _atom_site_label
 _atom_site_symmetry_multiplicity
 _atom_site_fract_x
 _atom_site_fract_y
 _atom_site_fract_z
 _atom_site_occupancy
  C  C0  1  0.50000000  0.28822695  0.30551785  1
  C  C1  1  0.50000000  0.29028830  0.63885362  1
  C  C2  1  0.50000000  0.28979596  0.97135957  1
  C  C3  1  0.50000000  0.34814052  0.30582551  1
  C  C4  1  0.50000000  0.35048323  0.63888256  1
  C  C5  1  0.50000000  0.35001862  0.97212047  1
  C  C6  1  0.50000000  0.40759538  0.30570295  1
  C  C7  1  0.50000000  0.41044355  0.63858383  1
  C  C8  1  0.50000000  0.41008412  0.97261753  1
  C  C9  1  0.50000000  0.46725742  0.30415264  1
  C  C10  1  0.50000000  0.47027767  0.63914644  1
  C  C11  1  0.50000000  0.47068129  0.97294064  1
  C  C12  1  0.50000000  0.53039536  0.64066828  1
  C  C13  1  0.50000000  0.53209051  0.96510477  1
  C  C14  1  0.50000000  0.59106551  0.64199032  1
  C  C15  1  0.50000000  0.59114628  0.96630809  1
  C  C16  1  0.50000000  0.65110736  0.64080943  1
  C  C17  1  0.50000000  0.65094495  0.96741076  1
  C  C18  1  0.50000000  0.71109562  0.30820635  1
  C  C19  1  0.50000000  0.71100487  0.64007617  1
  C  C20  1  0.50000000  0.71173786  0.97045095  1
  C  C21  1  0.50000000  0.28928978  0.02732318  1
  C  C22  1  0.50000000  0.28848294  0.36173879  1
  C  C23  1  0.50000000  0.29039054  0.69477672  1
  C  C24  1  0.50000000  0.34942159  0.02742605  1
  C  C25  1  0.50000000  0.34841980  0.36115050  1
  C  C26  1  0.50000000  0.35051935  0.69433021  1
  C  C27  1  0.50000000  0.40925567  0.02787101  1
  C  C28  1  0.50000000  0.40787940  0.36086010  1
  C  C29  1  0.50000000  0.41034110  0.69413236  1
  C  C30  1  0.50000000  0.46955844  0.02924100  1
  C  C31  1  0.50000000  0.46714070  0.35925119  1
  C  C32  1  0.50000000  0.47013916  0.69460295  1
  C  C33  1  0.50000000  0.53025367  0.69553490  1
  C  C34  1  0.50000000  0.59083721  0.69630844  1
  C  C35  1  0.50000000  0.65106327  0.69551780  1
  C  C36  1  0.50000000  0.71262738  0.02389008  1
  C  C37  1  0.50000000  0.71153272  0.36125457  1
  C  C38  1  0.50000000  0.71115732  0.69511787  1
  C  C39  1  0.50000000  0.25992042  0.05568623  1
  C  C40  1  0.50000000  0.25953053  0.39099171  1
  C  C41  1  0.50000000  0.26122002  0.72331899  1
  C  C42  1  0.50000000  0.31904422  0.05515192  1
  C  C43  1  0.50000000  0.31851222  0.38926133  1
  C  C44  1  0.50000000  0.32040869  0.72222453  1
  C  C45  1  0.50000000  0.37906359  0.05536307  1
  C  C46  1  0.50000000  0.37832196  0.38883732  1
  C  C47  1  0.50000000  0.38039074  0.72204772  1
  C  C48  1  0.50000000  0.43908695  0.05614296  1
  C  C49  1  0.50000000  0.43806389  0.38834455  1
  C  C50  1  0.50000000  0.44025701  0.72220604  1
  C  C51  1  0.50000000  0.49722936  0.06176186  1
  C  C52  1  0.50000000  0.49645345  0.38596544  1
  C  C53  1  0.50000000  0.50010010  0.72247958  1
  C  C54  1  0.50000000  0.56040392  0.72272469  1
  C  C55  1  0.50000000  0.62101273  0.72276072  1
  C  C56  1  0.50000000  0.68116265  0.72260810  1
  C  C57  1  0.50000000  0.74057743  0.05489134  1
  C  C58  1  0.50000000  0.73994667  0.39192593  1
  C  C59  1  0.50000000  0.74056785  0.72356429  1
  C  C60  1  0.50000000  0.25950665  0.10889474  1
  C  C61  1  0.50000000  0.25992360  0.44419267  1
  C  C62  1  0.50000000  0.26120916  0.77647085  1
  C  C63  1  0.50000000  0.31849024  0.11065911  1
  C  C64  1  0.50000000  0.31905927  0.44475904  1
  C  C65  1  0.50000000  0.32039969  0.77763452  1
  C  C66  1  0.50000000  0.37832096  0.11110996  1
  C  C67  1  0.50000000  0.37904548  0.44459867  1
  C  C68  1  0.50000000  0.38038721  0.77788202  1
  C  C69  1  0.50000000  0.43807518  0.11168792  1
  C  C70  1  0.50000000  0.43904396  0.44389128  1
  C  C71  1  0.50000000  0.44025436  0.77777350  1
  C  C72  1  0.50000000  0.49645461  0.11416208  1
  C  C73  1  0.50000000  0.49715845  0.43836489  1
  C  C74  1  0.50000000  0.50009698  0.77750691  1
  C  C75  1  0.50000000  0.56038950  0.77730657  1
  C  C76  1  0.50000000  0.62104089  0.77728938  1
  C  C77  1  0.50000000  0.68117751  0.77740114  1
  C  C78  1  0.50000000  0.74002829  0.10810508  1
  C  C79  1  0.50000000  0.74057308  0.44513347  1
  C  C80  1  0.50000000  0.74057782  0.77636878  1
  C  C81  1  0.50000000  0.28845431  0.13817344  1
  C  C82  1  0.50000000  0.28929492  0.47255540  1
  C  C83  1  0.50000000  0.29037137  0.80504546  1
  C  C84  1  0.50000000  0.34840621  0.13877197  1
  C  C85  1  0.50000000  0.34941230  0.47254552  1
  C  C86  1  0.50000000  0.35051134  0.80557789  1
  C  C87  1  0.50000000  0.40787319  0.13911785  1
  C  C88  1  0.50000000  0.40922023  0.47212702  1
  C  C89  1  0.50000000  0.41033504  0.80582561  1
  C  C90  1  0.50000000  0.46713675  0.14082518  1
  C  C91  1  0.50000000  0.46949111  0.47082278  1
  C  C92  1  0.50000000  0.47013292  0.80538714  1
  C  C93  1  0.50000000  0.53025069  0.80447749  1
  C  C94  1  0.50000000  0.59084559  0.80374439  1
  C  C95  1  0.50000000  0.65108214  0.80451990  1
  C  C96  1  0.50000000  0.71167744  0.13893461  1
  C  C97  1  0.50000000  0.71263526  0.47617709  1
  C  C98  1  0.50000000  0.71118283  0.80485478  1
  C  C99  1  0.50000000  0.28820814  0.19440373  1
  C  C100  1  0.50000000  0.28979315  0.52850057  1
  C  C101  1  0.50000000  0.29028026  0.86095941  1
  C  C102  1  0.50000000  0.34813520  0.19409971  1
  C  C103  1  0.50000000  0.34999319  0.52786382  1
  C  C104  1  0.50000000  0.35047730  0.86101560  1
  C  C105  1  0.50000000  0.40758990  0.19428008  1
  C  C106  1  0.50000000  0.41006974  0.52737071  1
  C  C107  1  0.50000000  0.41044165  0.86138289  1
  C  C108  1  0.50000000  0.46727167  0.19592018  1
  C  C109  1  0.50000000  0.47066153  0.52708562  1
  C  C110  1  0.50000000  0.47027876  0.86084410  1
  C  C111  1  0.50000000  0.53211134  0.53492636  1
  C  C112  1  0.50000000  0.53040128  0.85934959  1
  C  C113  1  0.50000000  0.59114877  0.53374744  1
  C  C114  1  0.50000000  0.59107967  0.85806678  1
  C  C115  1  0.50000000  0.65092944  0.53262767  1
  C  C116  1  0.50000000  0.65111538  0.85922934  1
  C  C117  1  0.50000000  0.71126544  0.19200226  1
  C  C118  1  0.50000000  0.71173743  0.52959823  1
  C  C119  1  0.50000000  0.71101394  0.85989521  1
  C  C120  1  0.50000000  0.25905688  0.22335157  1
  C  C121  1  0.50000000  0.26076827  0.55743473  1
  C  C122  1  0.50000000  0.26098446  0.88926707  1
  C  C123  1  0.50000000  0.31803546  0.22217467  1
  C  C124  1  0.50000000  0.31991309  0.55582803  1
  C  C125  1  0.50000000  0.32016463  0.88868574  1
  C  C126  1  0.50000000  0.37782599  0.22206352  1
  C  C127  1  0.50000000  0.38015074  0.55532458  1
  C  C128  1  0.50000000  0.38026993  0.88886793  1
  C  C129  1  0.50000000  0.43739193  0.22256926  1
  C  C130  1  0.50000000  0.44073007  0.55479945  1
  C  C131  1  0.50000000  0.44050085  0.88921859  1
  C  C132  1  0.50000000  0.49675679  0.22369723  1
  C  C133  1  0.50000000  0.50102712  0.55664777  1
  C  C134  1  0.50000000  0.50048058  0.88774465  1
  C  C135  1  0.50000000  0.56154988  0.56120432  1
  C  C136  1  0.50000000  0.56102574  0.88455748  1
  C  C137  1  0.50000000  0.62090010  0.55935619  1
  C  C138  1  0.50000000  0.62100440  0.88555167  1
  C  C139  1  0.50000000  0.68076452  0.55743908  1
  C  C140  1  0.50000000  0.68123025  0.88688749  1
  C  C141  1  0.50000000  0.73926279  0.22370533  1
  C  C142  1  0.50000000  0.74109602  0.55912383  1
  C  C143  1  0.50000000  0.74080718  0.88851866  1
  C  C144  1  0.50000000  0.25906292  0.27662400  1
  C  C145  1  0.50000000  0.26097559  0.61056628  1
  C  C146  1  0.50000000  0.26076136  0.94239185  1
  C  C147  1  0.50000000  0.31804206  0.27773281  1
  C  C148  1  0.50000000  0.32018071  0.61115531  1
  C  C149  1  0.50000000  0.31993342  0.94406702  1
  C  C150  1  0.50000000  0.37783300  0.27789771  1
  C  C151  1  0.50000000  0.38028336  0.61107690  1
  C  C152  1  0.50000000  0.38016713  0.94464682  1
  C  C153  1  0.50000000  0.43739531  0.27743335  1
  C  C154  1  0.50000000  0.44049676  0.61077249  1
  C  C155  1  0.50000000  0.44074542  0.94521749  1
  C  C156  1  0.50000000  0.49674871  0.27642807  1
  C  C157  1  0.50000000  0.50047697  0.61224964  1
  C  C158  1  0.50000000  0.50102760  0.94333539  1
  C  C159  1  0.50000000  0.56102094  0.61549553  1
  C  C160  1  0.50000000  0.56154506  0.93885674  1
  C  C161  1  0.50000000  0.62099244  0.61450925  1
  C  C162  1  0.50000000  0.62090524  0.94070525  1
  C  C163  1  0.50000000  0.68121470  0.61312307  1
  C  C164  1  0.50000000  0.68077787  0.94258037  1
  C  C165  1  0.50000000  0.73917258  0.27668559  1
  C  C166  1  0.50000000  0.74081593  0.61147721  1
  C  C167  1  0.50000000  0.74108393  0.94088192  1
  H  H168  1  0.50000000  0.23655932  0.03557785  1
  H  H169  1  0.50000000  0.23590622  0.37171330  1
  H  H170  1  0.50000000  0.23775644  0.70355256  1
  H  H171  1  0.50000000  0.76451951  0.03641641  1
  H  H172  1  0.50000000  0.76355013  0.37239898  1
  H  H173  1  0.50000000  0.76394257  0.70361508  1
  H  H174  1  0.50000000  0.23587336  0.12814617  1
  H  H175  1  0.50000000  0.23654016  0.46423766  1
  H  H176  1  0.50000000  0.23772295  0.79617260  1
  H  H177  1  0.50000000  0.76367317  0.12750624  1
  H  H178  1  0.50000000  0.76455416  0.46348214  1
  H  H179  1  0.50000000  0.76396948  0.79625507  1
  H  H180  1  0.50000000  0.23556794  0.20363660  1
  H  H181  1  0.50000000  0.23721998  0.53792421  1
  H  H182  1  0.50000000  0.23758763  0.86928473  1
  H  H183  1  0.50000000  0.76315580  0.20500254  1
  H  H184  1  0.50000000  0.76446830  0.53911006  1
  H  H185  1  0.50000000  0.76407248  0.86827789  1
  H  H186  1  0.50000000  0.23560580  0.29644796  1
  H  H187  1  0.50000000  0.23755869  0.63049638  1
  H  H188  1  0.50000000  0.23717506  0.96180528  1
  H  H189  1  0.50000000  0.76299803  0.29562290  1
  H  H190  1  0.50000000  0.76405739  0.63178329  1
  H  H191  1  0.50000000  0.76450453  0.96075055  1
  H  H192  1  0.50000000  0.53651335  0.00536265  1
  H  H193  1  0.50000000  0.59066825  0.00847218  1
  H  H194  1  0.50000000  0.64950740  0.00940670  1
  H  H195  1  0.50000000  0.68717644  0.28952202  1
  H  H196  1  0.50000000  0.68934735  0.04414201  1
  H  H197  1  0.50000000  0.68780482  0.38051412  1
  H  H198  1  0.50000000  0.52176418  0.04863583  1
  H  H199  1  0.50000000  0.51980591  0.36601968  1
  H  H200  1  0.50000000  0.51974930  0.13426831  1
  H  H201  1  0.50000000  0.52163729  0.45169228  1
  H  H202  1  0.50000000  0.68789288  0.11984162  1
  H  H203  1  0.50000000  0.68931971  0.45602230  1
  H  H204  1  0.50000000  0.53662690  0.49468984  1
  H  H205  1  0.50000000  0.59066394  0.49157827  1
  H  H206  1  0.50000000  0.64945667  0.49063427  1
  H  H207  1  0.50000000  0.68734163  0.21067717  1
  H  H208  1  0.50000000  0.52015647  0.20387873  1
  H  H209  1  0.50000000  0.52012059  0.29633081  1
