# generated using pymatgen
data_H4C15
_symmetry_space_group_name_H-M   'P 1'
_cell_length_a   20.00000000
_cell_length_b   37.22700000
_cell_length_c   26.05648620
_cell_angle_alpha   90.00000000
_cell_angle_beta   90.00000000
_cell_angle_gamma   90.00000000
_symmetry_Int_Tables_number   1
_chemical_formula_structural   H4C15
_chemical_formula_sum   'H40 C150'
_cell_volume   19400.09623241
_cell_formula_units_Z   10
loop_
 _symmetry_equiv_pos_site_id
 _symmetry_equiv_pos_as_xyz
  1  'x, y, z'
loop_
 _atom_site_type_symbol
 _atom_site_label
 _atom_site_symmetry_multiplicity
 _atom_site_fract_x
 _atom_site_fract_y
 _atom_site_fract_z
 _atom_site_occupancy
  C  C0  1  0.50000000  0.31113628  0.22160898  1
  C  C1  1  0.50000000  0.31664746  0.55632338  1
  C  C2  1  0.50000000  0.31712871  0.88786657  1
  C  C3  1  0.50000000  0.37726704  0.22257698  1
  C  C4  1  0.50000000  0.38345329  0.55516607  1
  C  C5  1  0.50000000  0.38356471  0.88902728  1
  C  C6  1  0.50000000  0.44278201  0.22377702  1
  C  C7  1  0.50000000  0.44984565  0.55678886  1
  C  C8  1  0.50000000  0.44960915  0.88754032  1
  C  C9  1  0.50000000  0.51633084  0.56298851  1
  C  C10  1  0.50000000  0.51637145  0.88339111  1
  C  C11  1  0.50000000  0.59180997  0.22385851  1
  C  C12  1  0.50000000  0.58285951  0.55652696  1
  C  C13  1  0.50000000  0.58321687  0.88732367  1
  C  C14  1  0.50000000  0.65781508  0.22236554  1
  C  C15  1  0.50000000  0.64965104  0.55537036  1
  C  C16  1  0.50000000  0.64948827  0.88871455  1
  C  C17  1  0.50000000  0.72285341  0.22340242  1
  C  C18  1  0.50000000  0.71556805  0.55875723  1
  C  C19  1  0.50000000  0.71495477  0.88843466  1
  C  C20  1  0.50000000  0.31110257  0.27830783  1
  C  C21  1  0.50000000  0.31698700  0.61214391  1
  C  C22  1  0.50000000  0.31685390  0.94364787  1
  C  C23  1  0.50000000  0.37723381  0.27746216  1
  C  C24  1  0.50000000  0.38345578  0.61102724  1
  C  C25  1  0.50000000  0.38363472  0.94489911  1
  C  C26  1  0.50000000  0.44275041  0.27642229  1
  C  C27  1  0.50000000  0.44954338  0.61244383  1
  C  C28  1  0.50000000  0.44996177  0.94318183  1
  C  C29  1  0.50000000  0.51630313  0.61656964  1
  C  C30  1  0.50000000  0.51643192  0.93698122  1
  C  C31  1  0.50000000  0.59180655  0.27620011  1
  C  C32  1  0.50000000  0.58314301  0.61251402  1
  C  C33  1  0.50000000  0.58294904  0.94330818  1
  C  C34  1  0.50000000  0.65779689  0.27766021  1
  C  C35  1  0.50000000  0.64943627  0.61112558  1
  C  C36  1  0.50000000  0.64969252  0.94452657  1
  C  C37  1  0.50000000  0.72282876  0.27668997  1
  C  C38  1  0.50000000  0.71494450  0.61138739  1
  C  C39  1  0.50000000  0.71557003  0.94107088  1
  C  C40  1  0.50000000  0.27935437  0.30824975  1
  C  C41  1  0.50000000  0.28496948  0.64088241  1
  C  C42  1  0.50000000  0.28415839  0.97095126  1
  C  C43  1  0.50000000  0.34421167  0.30589046  1
  C  C44  1  0.50000000  0.35030243  0.63910037  1
  C  C45  1  0.50000000  0.34953834  0.97195120  1
  C  C46  1  0.50000000  0.41027201  0.30409375  1
  C  C47  1  0.50000000  0.41625197  0.63924672  1
  C  C48  1  0.50000000  0.41646065  0.97284024  1
  C  C49  1  0.50000000  0.48251180  0.64134559  1
  C  C50  1  0.50000000  0.48444562  0.96449207  1
  C  C51  1  0.50000000  0.55015098  0.64138055  1
  C  C52  1  0.50000000  0.54884195  0.96450490  1
  C  C53  1  0.50000000  0.62439542  0.30443856  1
  C  C54  1  0.50000000  0.61613093  0.63944096  1
  C  C55  1  0.50000000  0.61673150  0.97330854  1
  C  C56  1  0.50000000  0.69057978  0.30635935  1
  C  C57  1  0.50000000  0.68214698  0.63907940  1
  C  C58  1  0.50000000  0.68362725  0.97088468  1
  C  C59  1  0.50000000  0.28280665  0.02396434  1
  C  C60  1  0.50000000  0.28004185  0.36163680  1
  C  C61  1  0.50000000  0.28510430  0.69397767  1
  C  C62  1  0.50000000  0.34791125  0.02721205  1
  C  C63  1  0.50000000  0.34498895  0.36140869  1
  C  C64  1  0.50000000  0.35035469  0.69443911  1
  C  C65  1  0.50000000  0.41459817  0.02939669  1
  C  C66  1  0.50000000  0.41062357  0.35932636  1
  C  C67  1  0.50000000  0.41633013  0.69471444  1
  C  C68  1  0.50000000  0.48267187  0.69598345  1
  C  C69  1  0.50000000  0.54993756  0.69587730  1
  C  C70  1  0.50000000  0.61892945  0.02891096  1
  C  C71  1  0.50000000  0.62369723  0.35898769  1
  C  C72  1  0.50000000  0.61611624  0.69447822  1
  C  C73  1  0.50000000  0.68556409  0.02626740  1
  C  C74  1  0.50000000  0.68950777  0.36224199  1
  C  C75  1  0.50000000  0.68222942  0.69472279  1
  C  C76  1  0.50000000  0.31427667  0.05389619  1
  C  C77  1  0.50000000  0.31254249  0.38989011  1
  C  C78  1  0.50000000  0.31734690  0.72213035  1
  C  C79  1  0.50000000  0.38069189  0.05590299  1
  C  C80  1  0.50000000  0.37870960  0.38864798  1
  C  C81  1  0.50000000  0.38347376  0.72233709  1
  C  C82  1  0.50000000  0.44490795  0.06216724  1
  C  C83  1  0.50000000  0.44320204  0.38558628  1
  C  C84  1  0.50000000  0.44936303  0.72264329  1
  C  C85  1  0.50000000  0.51620405  0.72264337  1
  C  C86  1  0.50000000  0.58866915  0.06259558  1
  C  C87  1  0.50000000  0.59073837  0.38537252  1
  C  C88  1  0.50000000  0.58318311  0.72249350  1
  C  C89  1  0.50000000  0.65329389  0.05541636  1
  C  C90  1  0.50000000  0.65566169  0.38884707  1
  C  C91  1  0.50000000  0.64924940  0.72228943  1
  C  C92  1  0.50000000  0.71880820  0.05351834  1
  C  C93  1  0.50000000  0.72080073  0.39347798  1
  C  C94  1  0.50000000  0.71450470  0.72336078  1
  C  C95  1  0.50000000  0.31265471  0.11007948  1
  C  C96  1  0.50000000  0.31411332  0.44608454  1
  C  C97  1  0.50000000  0.31737370  0.77798058  1
  C  C98  1  0.50000000  0.37881775  0.11138507  1
  C  C99  1  0.50000000  0.38051684  0.44411751  1
  C  C100  1  0.50000000  0.38349851  0.77766500  1
  C  C101  1  0.50000000  0.44329678  0.11461033  1
  C  C102  1  0.50000000  0.44471969  0.43802664  1
  C  C103  1  0.50000000  0.44937931  0.77734855  1
  C  C104  1  0.50000000  0.51624253  0.77730610  1
  C  C105  1  0.50000000  0.59079105  0.11476332  1
  C  C106  1  0.50000000  0.58871370  0.43753501  1
  C  C107  1  0.50000000  0.58317232  0.77737853  1
  C  C108  1  0.50000000  0.65568961  0.11115177  1
  C  C109  1  0.50000000  0.65331215  0.44457127  1
  C  C110  1  0.50000000  0.64926520  0.77748827  1
  C  C111  1  0.50000000  0.72082694  0.10646617  1
  C  C112  1  0.50000000  0.71877878  0.44638269  1
  C  C113  1  0.50000000  0.71453641  0.77633260  1
  C  C114  1  0.50000000  0.28011655  0.13827874  1
  C  C115  1  0.50000000  0.28262336  0.47596277  1
  C  C116  1  0.50000000  0.28512068  0.80615236  1
  C  C117  1  0.50000000  0.34508217  0.13858522  1
  C  C118  1  0.50000000  0.34773361  0.47281082  1
  C  C119  1  0.50000000  0.35040694  0.80558910  1
  C  C120  1  0.50000000  0.41069810  0.14078293  1
  C  C121  1  0.50000000  0.41438887  0.47068152  1
  C  C122  1  0.50000000  0.41634898  0.80525681  1
  C  C123  1  0.50000000  0.48271633  0.80398155  1
  C  C124  1  0.50000000  0.54997035  0.80403896  1
  C  C125  1  0.50000000  0.62374280  0.14107525  1
  C  C126  1  0.50000000  0.61898276  0.47108992  1
  C  C127  1  0.50000000  0.61613543  0.80532088  1
  C  C128  1  0.50000000  0.68953608  0.13774384  1
  C  C129  1  0.50000000  0.68557032  0.47367218  1
  C  C130  1  0.50000000  0.68227112  0.80503125  1
  C  C131  1  0.50000000  0.27938704  0.19167697  1
  C  C132  1  0.50000000  0.28393709  0.52900155  1
  C  C133  1  0.50000000  0.28506284  0.85923609  1
  C  C134  1  0.50000000  0.34427100  0.19409978  1
  C  C135  1  0.50000000  0.34935471  0.52807539  1
  C  C136  1  0.50000000  0.35040153  0.86095209  1
  C  C137  1  0.50000000  0.41033133  0.19600939  1
  C  C138  1  0.50000000  0.41628931  0.52721471  1
  C  C139  1  0.50000000  0.41631933  0.86071401  1
  C  C140  1  0.50000000  0.48433712  0.53549485  1
  C  C141  1  0.50000000  0.48256980  0.85864033  1
  C  C142  1  0.50000000  0.54871103  0.53539442  1
  C  C143  1  0.50000000  0.55020447  0.85854188  1
  C  C144  1  0.50000000  0.62440247  0.19563303  1
  C  C145  1  0.50000000  0.61669579  0.52663797  1
  C  C146  1  0.50000000  0.61618470  0.86037054  1
  C  C147  1  0.50000000  0.69061630  0.19366585  1
  C  C148  1  0.50000000  0.68360037  0.52901841  1
  C  C149  1  0.50000000  0.68218726  0.86069165  1
  H  H150  1  0.50000000  0.74895254  0.20397992  1
  H  H151  1  0.50000000  0.74167876  0.53961925  1
  H  H152  1  0.50000000  0.74053109  0.86795777  1
  H  H153  1  0.50000000  0.74885974  0.29630712  1
  H  H154  1  0.50000000  0.74045605  0.63204098  1
  H  H155  1  0.50000000  0.74175355  0.96001954  1
  H  H156  1  0.50000000  0.25302165  0.28960288  1
  H  H157  1  0.50000000  0.25893741  0.62156248  1
  H  H158  1  0.50000000  0.25875692  0.95001731  1
  H  H159  1  0.50000000  0.25646015  0.04240774  1
  H  H160  1  0.50000000  0.25423614  0.38178940  1
  H  H161  1  0.50000000  0.25925784  0.71380236  1
  H  H162  1  0.50000000  0.74396361  0.03189222  1
  H  H163  1  0.50000000  0.74748172  0.37588855  1
  H  H164  1  0.50000000  0.74042378  0.70372522  1
  H  H165  1  0.50000000  0.74740196  0.12440262  1
  H  H166  1  0.50000000  0.74403881  0.46772196  1
  H  H167  1  0.50000000  0.74050802  0.79580226  1
  H  H168  1  0.50000000  0.25438864  0.11792134  1
  H  H169  1  0.50000000  0.25634197  0.45730760  1
  H  H170  1  0.50000000  0.25929297  0.78625280  1
  H  H171  1  0.50000000  0.25312570  0.21056827  1
  H  H172  1  0.50000000  0.25852323  0.54989535  1
  H  H173  1  0.50000000  0.25911334  0.87879195  1
  H  H174  1  0.50000000  0.46859741  0.20401468  1
  H  H175  1  0.50000000  0.56594400  0.20426363  1
  H  H176  1  0.50000000  0.46851007  0.29633161  1
  H  H177  1  0.50000000  0.56602038  0.29602735  1
  H  H178  1  0.50000000  0.48958902  0.00485913  1
  H  H179  1  0.50000000  0.54382603  0.00494211  1
  H  H180  1  0.50000000  0.47206650  0.04884674  1
  H  H181  1  0.50000000  0.46871955  0.36509075  1
  H  H182  1  0.50000000  0.56132676  0.04971109  1
  H  H183  1  0.50000000  0.56537748  0.36441527  1
  H  H184  1  0.50000000  0.46870140  0.13539402  1
  H  H185  1  0.50000000  0.47180848  0.45157044  1
  H  H186  1  0.50000000  0.56554240  0.13594624  1
  H  H187  1  0.50000000  0.56147017  0.45075094  1
  H  H188  1  0.50000000  0.48961108  0.49516927  1
  H  H189  1  0.50000000  0.54342071  0.49500939  1
