# generated using pymatgen
data_H4C15
_symmetry_space_group_name_H-M   'P 1'
_cell_length_a   20.00000000
_cell_length_b   37.22700000
_cell_length_c   26.02003346
_cell_angle_alpha   90.00000000
_cell_angle_beta   90.00000000
_cell_angle_gamma   90.00000000
_symmetry_Int_Tables_number   1
_chemical_formula_structural   H4C15
_chemical_formula_sum   'H40 C150'
_cell_volume   19372.95571144
_cell_formula_units_Z   10
loop_
 _symmetry_equiv_pos_site_id
 _symmetry_equiv_pos_as_xyz
  1  'x, y, z'
loop_
 _atom_site_type_symbol
 _atom_site_label
 _atom_site_symmetry_multiplicity
 _atom_site_fract_x
 _atom_site_fract_y
 _atom_site_fract_z
 _atom_site_occupancy
  C  C0  1  0.50000000  0.31179067  0.22196584  1
  C  C1  1  0.50000000  0.31529979  0.55639196  1
  C  C2  1  0.50000000  0.31588420  0.88805439  1
  C  C3  1  0.50000000  0.37796940  0.22232493  1
  C  C4  1  0.50000000  0.38182426  0.55573630  1
  C  C5  1  0.50000000  0.38228938  0.88913964  1
  C  C6  1  0.50000000  0.44373143  0.22257968  1
  C  C7  1  0.50000000  0.44871612  0.55466829  1
  C  C8  1  0.50000000  0.44867819  0.88939739  1
  C  C9  1  0.50000000  0.50946843  0.22379683  1
  C  C10  1  0.50000000  0.51562031  0.55647356  1
  C  C11  1  0.50000000  0.51504973  0.88757986  1
  C  C12  1  0.50000000  0.58241473  0.56188388  1
  C  C13  1  0.50000000  0.58209858  0.88411011  1
  C  C14  1  0.50000000  0.67038220  0.22363334  1
  C  C15  1  0.50000000  0.64889080  0.55659651  1
  C  C16  1  0.50000000  0.64878012  0.88749654  1
  C  C17  1  0.50000000  0.73475802  0.22301115  1
  C  C18  1  0.50000000  0.71409912  0.55879231  1
  C  C19  1  0.50000000  0.71395898  0.88800987  1
  C  C20  1  0.50000000  0.31180148  0.27801519  1
  C  C21  1  0.50000000  0.31586067  0.61199565  1
  C  C22  1  0.50000000  0.31532856  0.94364980  1
  C  C23  1  0.50000000  0.37796714  0.27766063  1
  C  C24  1  0.50000000  0.38226988  0.61086653  1
  C  C25  1  0.50000000  0.38184200  0.94425947  1
  C  C26  1  0.50000000  0.44373802  0.27746816  1
  C  C27  1  0.50000000  0.44864707  0.61060069  1
  C  C28  1  0.50000000  0.44873991  0.94533321  1
  C  C29  1  0.50000000  0.50946828  0.27626676  1
  C  C30  1  0.50000000  0.51504843  0.61238088  1
  C  C31  1  0.50000000  0.51563113  0.94347787  1
  C  C32  1  0.50000000  0.58207726  0.61584682  1
  C  C33  1  0.50000000  0.58243619  0.93807326  1
  C  C34  1  0.50000000  0.67037962  0.27641554  1
  C  C35  1  0.50000000  0.64875094  0.61247082  1
  C  C36  1  0.50000000  0.64890009  0.94335549  1
  C  C37  1  0.50000000  0.73475822  0.27688800  1
  C  C38  1  0.50000000  0.71392009  0.61201344  1
  C  C39  1  0.50000000  0.71409104  0.94122807  1
  C  C40  1  0.50000000  0.27973727  0.30768098  1
  C  C41  1  0.50000000  0.28362706  0.64095069  1
  C  C42  1  0.50000000  0.28259717  0.97171867  1
  C  C43  1  0.50000000  0.34493639  0.30582455  1
  C  C44  1  0.50000000  0.34917894  0.63915072  1
  C  C45  1  0.50000000  0.34811911  0.97174025  1
  C  C46  1  0.50000000  0.41096117  0.30575011  1
  C  C47  1  0.50000000  0.41572566  0.63846470  1
  C  C48  1  0.50000000  0.41483537  0.97257689  1
  C  C49  1  0.50000000  0.47682358  0.30427702  1
  C  C50  1  0.50000000  0.48191655  0.63916893  1
  C  C51  1  0.50000000  0.48193351  0.97342699  1
  C  C52  1  0.50000000  0.54819894  0.64097673  1
  C  C53  1  0.50000000  0.54977482  0.96487508  1
  C  C54  1  0.50000000  0.61563058  0.64106764  1
  C  C55  1  0.50000000  0.61452591  0.96579567  1
  C  C56  1  0.50000000  0.70240864  0.30503910  1
  C  C57  1  0.50000000  0.68176548  0.63989306  1
  C  C58  1  0.50000000  0.68285271  0.97124472  1
  C  C59  1  0.50000000  0.28175229  0.02468355  1
  C  C60  1  0.50000000  0.28011192  0.36085805  1
  C  C61  1  0.50000000  0.28390530  0.69380646  1
  C  C62  1  0.50000000  0.34710661  0.02720804  1
  C  C63  1  0.50000000  0.34540113  0.36150144  1
  C  C64  1  0.50000000  0.34938812  0.69462751  1
  C  C65  1  0.50000000  0.41355887  0.02792315  1
  C  C66  1  0.50000000  0.41145828  0.36099253  1
  C  C67  1  0.50000000  0.41575196  0.69435731  1
  C  C68  1  0.50000000  0.48029930  0.02916450  1
  C  C69  1  0.50000000  0.47690923  0.35890279  1
  C  C70  1  0.50000000  0.48190586  0.69448588  1
  C  C71  1  0.50000000  0.54822264  0.69565036  1
  C  C72  1  0.50000000  0.61527887  0.69578212  1
  C  C73  1  0.50000000  0.68793232  0.02785807  1
  C  C74  1  0.50000000  0.69942713  0.36139913  1
  C  C75  1  0.50000000  0.68174401  0.69545143  1
  C  C76  1  0.50000000  0.31362851  0.05441313  1
  C  C77  1  0.50000000  0.31263101  0.38967861  1
  C  C78  1  0.50000000  0.31641946  0.72219902  1
  C  C79  1  0.50000000  0.37997996  0.05551892  1
  C  C80  1  0.50000000  0.37879838  0.38931853  1
  C  C81  1  0.50000000  0.38277953  0.72240116  1
  C  C82  1  0.50000000  0.44634697  0.05613237  1
  C  C83  1  0.50000000  0.44483227  0.38827678  1
  C  C84  1  0.50000000  0.44873990  0.72226763  1
  C  C85  1  0.50000000  0.51085988  0.06223003  1
  C  C86  1  0.50000000  0.50955321  0.38555944  1
  C  C87  1  0.50000000  0.51491797  0.72242402  1
  C  C88  1  0.50000000  0.58185547  0.72249961  1
  C  C89  1  0.50000000  0.65969873  0.06384540  1
  C  C90  1  0.50000000  0.66517406  0.38373769  1
  C  C91  1  0.50000000  0.64865168  0.72272029  1
  C  C92  1  0.50000000  0.72268246  0.05069556  1
  C  C93  1  0.50000000  0.72834415  0.39625297  1
  C  C94  1  0.50000000  0.71404656  0.72347465  1
  C  C95  1  0.50000000  0.31265305  0.11028553  1
  C  C96  1  0.50000000  0.31360232  0.44557465  1
  C  C97  1  0.50000000  0.31639776  0.77785052  1
  C  C98  1  0.50000000  0.37884268  0.11068975  1
  C  C99  1  0.50000000  0.37994420  0.44449577  1
  C  C100  1  0.50000000  0.38275654  0.77762019  1
  C  C101  1  0.50000000  0.44488133  0.11173333  1
  C  C102  1  0.50000000  0.44630998  0.44385389  1
  C  C103  1  0.50000000  0.44869077  0.77772507  1
  C  C104  1  0.50000000  0.50957962  0.11446546  1
  C  C105  1  0.50000000  0.51084458  0.43776820  1
  C  C106  1  0.50000000  0.51491411  0.77753618  1
  C  C107  1  0.50000000  0.58186595  0.77747834  1
  C  C108  1  0.50000000  0.66510300  0.11628786  1
  C  C109  1  0.50000000  0.65972777  0.43616560  1
  C  C110  1  0.50000000  0.64865973  0.77726857  1
  C  C111  1  0.50000000  0.72825563  0.10372277  1
  C  C112  1  0.50000000  0.72272097  0.44927930  1
  C  C113  1  0.50000000  0.71404365  0.77649415  1
  C  C114  1  0.50000000  0.28013603  0.13912173  1
  C  C115  1  0.50000000  0.28174228  0.47536279  1
  C  C116  1  0.50000000  0.28386848  0.80625493  1
  C  C117  1  0.50000000  0.34542804  0.13847451  1
  C  C118  1  0.50000000  0.34706729  0.47281632  1
  C  C119  1  0.50000000  0.34937657  0.80540027  1
  C  C120  1  0.50000000  0.41151085  0.13901197  1
  C  C121  1  0.50000000  0.41353554  0.47207902  1
  C  C122  1  0.50000000  0.41571027  0.80569395  1
  C  C123  1  0.50000000  0.47694073  0.14113509  1
  C  C124  1  0.50000000  0.48026976  0.47081035  1
  C  C125  1  0.50000000  0.48188358  0.80543515  1
  C  C126  1  0.50000000  0.54822944  0.80433317  1
  C  C127  1  0.50000000  0.61528571  0.80418953  1
  C  C128  1  0.50000000  0.69935707  0.13859465  1
  C  C129  1  0.50000000  0.68796982  0.47212468  1
  C  C130  1  0.50000000  0.68175313  0.80453090  1
  C  C131  1  0.50000000  0.27972751  0.19229616  1
  C  C132  1  0.50000000  0.28258640  0.52833947  1
  C  C133  1  0.50000000  0.28363136  0.85910995  1
  C  C134  1  0.50000000  0.34492270  0.19416203  1
  C  C135  1  0.50000000  0.34809049  0.52829073  1
  C  C136  1  0.50000000  0.34918464  0.86088867  1
  C  C137  1  0.50000000  0.41097572  0.19423063  1
  C  C138  1  0.50000000  0.41481570  0.52741383  1
  C  C139  1  0.50000000  0.41574294  0.86157366  1
  C  C140  1  0.50000000  0.47682780  0.19577336  1
  C  C141  1  0.50000000  0.48190665  0.52655190  1
  C  C142  1  0.50000000  0.48192380  0.86077196  1
  C  C143  1  0.50000000  0.54975480  0.53507226  1
  C  C144  1  0.50000000  0.54820505  0.85900719  1
  C  C145  1  0.50000000  0.61451116  0.53414780  1
  C  C146  1  0.50000000  0.61565779  0.85889569  1
  C  C147  1  0.50000000  0.70238185  0.19493887  1
  C  C148  1  0.50000000  0.68287466  0.52874007  1
  C  C149  1  0.50000000  0.68180684  0.86009413  1
  H  H150  1  0.50000000  0.76060561  0.20280716  1
  H  H151  1  0.50000000  0.74035941  0.54024778  1
  H  H152  1  0.50000000  0.73985451  0.86834003  1
  H  H153  1  0.50000000  0.76060844  0.29706694  1
  H  H154  1  0.50000000  0.73978484  0.63174442  1
  H  H155  1  0.50000000  0.74032725  0.95984441  1
  H  H156  1  0.50000000  0.25360579  0.28840185  1
  H  H157  1  0.50000000  0.25761750  0.62147380  1
  H  H158  1  0.50000000  0.25702301  0.95109081  1
  H  H159  1  0.50000000  0.25561688  0.04382624  1
  H  H160  1  0.50000000  0.25416440  0.38062795  1
  H  H161  1  0.50000000  0.25809301  0.71377542  1
  H  H162  1  0.50000000  0.74689230  0.02697041  1
  H  H163  1  0.50000000  0.75607270  0.38209409  1
  H  H164  1  0.50000000  0.73985269  0.70350952  1
  H  H165  1  0.50000000  0.75596047  0.11792573  1
  H  H166  1  0.50000000  0.74690726  0.47303841  1
  H  H167  1  0.50000000  0.73983746  0.79648591  1
  H  H168  1  0.50000000  0.25422523  0.11928357  1
  H  H169  1  0.50000000  0.25562013  0.45618593  1
  H  H170  1  0.50000000  0.25803250  0.78630596  1
  H  H171  1  0.50000000  0.25358706  0.21153132  1
  H  H172  1  0.50000000  0.25694074  0.54878940  1
  H  H173  1  0.50000000  0.25762850  0.87866204  1
  H  H174  1  0.50000000  0.53524877  0.20390853  1
  H  H175  1  0.50000000  0.64421600  0.20493839  1
  H  H176  1  0.50000000  0.53524889  0.29614307  1
  H  H177  1  0.50000000  0.64422220  0.29516346  1
  H  H178  1  0.50000000  0.55473795  0.00524279  1
  H  H179  1  0.50000000  0.61053595  0.00680651  1
  H  H180  1  0.50000000  0.53804371  0.04911865  1
  H  H181  1  0.50000000  0.53506547  0.36495119  1
  H  H182  1  0.50000000  0.63181160  0.05275572  1
  H  H183  1  0.50000000  0.64095160  0.36022630  1
  H  H184  1  0.50000000  0.53509305  0.13506386  1
  H  H185  1  0.50000000  0.53802580  0.45091183  1
  H  H186  1  0.50000000  0.64089617  0.13984542  1
  H  H187  1  0.50000000  0.63183519  0.44724580  1
  H  H188  1  0.50000000  0.55475992  0.49471276  1
  H  H189  1  0.50000000  0.61043083  0.49314295  1
