# generated using pymatgen
data_H19C75
_symmetry_space_group_name_H-M   'P 1'
_cell_length_a   20.00000000
_cell_length_b   37.22700000
_cell_length_c   25.84097137
_cell_angle_alpha   90.00000000
_cell_angle_beta   90.00000000
_cell_angle_gamma   90.00000000
_symmetry_Int_Tables_number   1
_chemical_formula_structural   H19C75
_chemical_formula_sum   'H38 C150'
_cell_volume   19239.63682535
_cell_formula_units_Z   2
loop_
 _symmetry_equiv_pos_site_id
 _symmetry_equiv_pos_as_xyz
  1  'x, y, z'
loop_
 _atom_site_type_symbol
 _atom_site_label
 _atom_site_symmetry_multiplicity
 _atom_site_fract_x
 _atom_site_fract_y
 _atom_site_fract_z
 _atom_site_occupancy
  C  C0  1  0.50000000  0.31791001  0.22210431  1
  C  C1  1  0.50000000  0.31732295  0.55539363  1
  C  C2  1  0.50000000  0.31731989  0.88874544  1
  C  C3  1  0.50000000  0.38426185  0.22239110  1
  C  C4  1  0.50000000  0.38363153  0.55593409  1
  C  C5  1  0.50000000  0.38367329  0.88893579  1
  C  C6  1  0.50000000  0.45062594  0.22201022  1
  C  C7  1  0.50000000  0.44986139  0.55615315  1
  C  C8  1  0.50000000  0.44992752  0.88837005  1
  C  C9  1  0.50000000  0.51670577  0.55685857  1
  C  C10  1  0.50000000  0.51647429  0.88800146  1
  C  C11  1  0.50000000  0.58274032  0.55680384  1
  C  C12  1  0.50000000  0.58301582  0.88800521  1
  C  C13  1  0.50000000  0.64880466  0.22201454  1
  C  C14  1  0.50000000  0.64977561  0.55608040  1
  C  C15  1  0.50000000  0.64973887  0.88839769  1
  C  C16  1  0.50000000  0.71443467  0.22343778  1
  C  C17  1  0.50000000  0.71534103  0.55703720  1
  C  C18  1  0.50000000  0.71534703  0.88987217  1
  C  C19  1  0.50000000  0.31790107  0.27792451  1
  C  C20  1  0.50000000  0.31732261  0.61124180  1
  C  C21  1  0.50000000  0.31732299  0.94459351  1
  C  C22  1  0.50000000  0.38425967  0.27760960  1
  C  C23  1  0.50000000  0.38367342  0.61106159  1
  C  C24  1  0.50000000  0.38363121  0.94406721  1
  C  C25  1  0.50000000  0.45062963  0.27802051  1
  C  C26  1  0.50000000  0.44993046  0.61162025  1
  C  C27  1  0.50000000  0.44985643  0.94383470  1
  C  C28  1  0.50000000  0.51647713  0.61197923  1
  C  C29  1  0.50000000  0.51670346  0.94311808  1
  C  C30  1  0.50000000  0.58301046  0.61197515  1
  C  C31  1  0.50000000  0.58275199  0.94316989  1
  C  C32  1  0.50000000  0.64880835  0.27800515  1
  C  C33  1  0.50000000  0.64971745  0.61157323  1
  C  C34  1  0.50000000  0.64978792  0.94389503  1
  C  C35  1  0.50000000  0.71444370  0.27650717  1
  C  C36  1  0.50000000  0.71532748  0.61011929  1
  C  C37  1  0.50000000  0.71535726  0.94296671  1
  C  C38  1  0.50000000  0.28535522  0.30662801  1
  C  C39  1  0.50000000  0.28490201  0.64005813  1
  C  C40  1  0.50000000  0.28492188  0.97352766  1
  C  C41  1  0.50000000  0.35096967  0.30553087  1
  C  C42  1  0.50000000  0.35040350  0.63891746  1
  C  C43  1  0.50000000  0.35044376  0.97213046  1
  C  C44  1  0.50000000  0.41754155  0.30569362  1
  C  C45  1  0.50000000  0.41685813  0.63911524  1
  C  C46  1  0.50000000  0.41688075  0.97191010  1
  C  C47  1  0.50000000  0.48297901  0.30706953  1
  C  C48  1  0.50000000  0.48314079  0.63958225  1
  C  C49  1  0.50000000  0.48298349  0.97174250  1
  C  C50  1  0.50000000  0.54975197  0.63947354  1
  C  C51  1  0.50000000  0.54974764  0.96869097  1
  C  C52  1  0.50000000  0.61638660  0.30715625  1
  C  C53  1  0.50000000  0.61635772  0.63955938  1
  C  C54  1  0.50000000  0.61653970  0.97182456  1
  C  C55  1  0.50000000  0.68193206  0.30552413  1
  C  C56  1  0.50000000  0.68279639  0.63897689  1
  C  C57  1  0.50000000  0.68282482  0.97181235  1
  C  C58  1  0.50000000  0.28498143  0.02672554  1
  C  C59  1  0.50000000  0.28527534  0.35978565  1
  C  C60  1  0.50000000  0.28492251  0.69325371  1
  C  C61  1  0.50000000  0.35052023  0.02773847  1
  C  C62  1  0.50000000  0.35089337  0.36117955  1
  C  C63  1  0.50000000  0.35040954  0.69448098  1
  C  C64  1  0.50000000  0.41689851  0.02739996  1
  C  C65  1  0.50000000  0.41750506  0.36142353  1
  C  C66  1  0.50000000  0.41685323  0.69457673  1
  C  C67  1  0.50000000  0.48216036  0.02569586  1
  C  C68  1  0.50000000  0.48291380  0.36037882  1
  C  C69  1  0.50000000  0.48318087  0.69458382  1
  C  C70  1  0.50000000  0.54974564  0.69489978  1
  C  C71  1  0.50000000  0.61737407  0.02562162  1
  C  C72  1  0.50000000  0.61651357  0.36033579  1
  C  C73  1  0.50000000  0.61628848  0.69445394  1
  C  C74  1  0.50000000  0.68285317  0.02752206  1
  C  C75  1  0.50000000  0.68204310  0.36143456  1
  C  C76  1  0.50000000  0.68275102  0.69469938  1
  C  C77  1  0.50000000  0.31749028  0.05548477  1
  C  C78  1  0.50000000  0.31770467  0.38869726  1
  C  C79  1  0.50000000  0.31734045  0.72206034  1
  C  C80  1  0.50000000  0.38381551  0.05558788  1
  C  C81  1  0.50000000  0.38407877  0.38919998  1
  C  C82  1  0.50000000  0.38367101  0.72242204  1
  C  C83  1  0.50000000  0.45020059  0.05459762  1
  C  C84  1  0.50000000  0.45047885  0.38923068  1
  C  C85  1  0.50000000  0.44994341  0.72229427  1
  C  C86  1  0.50000000  0.51651835  0.72243085  1
  C  C87  1  0.50000000  0.58294919  0.72239245  1
  C  C88  1  0.50000000  0.64946535  0.05461537  1
  C  C89  1  0.50000000  0.64907945  0.38922911  1
  C  C90  1  0.50000000  0.64962311  0.72225710  1
  C  C91  1  0.50000000  0.71520605  0.05684482  1
  C  C92  1  0.50000000  0.71477232  0.39006298  1
  C  C93  1  0.50000000  0.71520165  0.72348270  1
  C  C94  1  0.50000000  0.31770149  0.11130985  1
  C  C95  1  0.50000000  0.31749248  0.44452169  1
  C  C96  1  0.50000000  0.31734870  0.77790849  1
  C  C97  1  0.50000000  0.38407979  0.11080219  1
  C  C98  1  0.50000000  0.38381473  0.44441071  1
  C  C99  1  0.50000000  0.38367193  0.77757407  1
  C  C100  1  0.50000000  0.45048851  0.11078105  1
  C  C101  1  0.50000000  0.45019168  0.44540899  1
  C  C102  1  0.50000000  0.44994178  0.77770045  1
  C  C103  1  0.50000000  0.51651728  0.77756782  1
  C  C104  1  0.50000000  0.58294813  0.77760385  1
  C  C105  1  0.50000000  0.64904605  0.11081569  1
  C  C106  1  0.50000000  0.64946083  0.44539279  1
  C  C107  1  0.50000000  0.64961516  0.77773675  1
  C  C108  1  0.50000000  0.71477529  0.10994607  1
  C  C109  1  0.50000000  0.71518340  0.44314761  1
  C  C110  1  0.50000000  0.71518448  0.77664057  1
  C  C111  1  0.50000000  0.28528656  0.14025382  1
  C  C112  1  0.50000000  0.28497280  0.47326126  1
  C  C113  1  0.50000000  0.28493831  0.80671066  1
  C  C114  1  0.50000000  0.35089359  0.13882289  1
  C  C115  1  0.50000000  0.35052168  0.47226009  1
  C  C116  1  0.50000000  0.35041167  0.80551274  1
  C  C117  1  0.50000000  0.41750857  0.13857884  1
  C  C118  1  0.50000000  0.41689386  0.47260193  1
  C  C119  1  0.50000000  0.41685292  0.80542142  1
  C  C120  1  0.50000000  0.48291122  0.13967852  1
  C  C121  1  0.50000000  0.48216559  0.47427026  1
  C  C122  1  0.50000000  0.48317889  0.80541109  1
  C  C123  1  0.50000000  0.54974525  0.80510180  1
  C  C124  1  0.50000000  0.61648814  0.13972994  1
  C  C125  1  0.50000000  0.61735349  0.47434302  1
  C  C126  1  0.50000000  0.61628846  0.80553793  1
  C  C127  1  0.50000000  0.68202675  0.13856891  1
  C  C128  1  0.50000000  0.68283177  0.47245260  1
  C  C129  1  0.50000000  0.68272634  0.80531624  1
  C  C130  1  0.50000000  0.28537553  0.19340074  1
  C  C131  1  0.50000000  0.28491215  0.52647137  1
  C  C132  1  0.50000000  0.28491125  0.85989801  1
  C  C133  1  0.50000000  0.35097191  0.19447338  1
  C  C134  1  0.50000000  0.35044503  0.52786839  1
  C  C135  1  0.50000000  0.35040371  0.86107666  1
  C  C136  1  0.50000000  0.41754439  0.19431383  1
  C  C137  1  0.50000000  0.41688066  0.52809064  1
  C  C138  1  0.50000000  0.41685629  0.86087908  1
  C  C139  1  0.50000000  0.48297435  0.19298650  1
  C  C140  1  0.50000000  0.48299113  0.52823156  1
  C  C141  1  0.50000000  0.48313699  0.86040610  1
  C  C142  1  0.50000000  0.54974202  0.53126189  1
  C  C143  1  0.50000000  0.54975193  0.86051265  1
  C  C144  1  0.50000000  0.61638157  0.19290018  1
  C  C145  1  0.50000000  0.61652301  0.52813641  1
  C  C146  1  0.50000000  0.61636670  0.86043028  1
  C  C147  1  0.50000000  0.68191815  0.19446509  1
  C  C148  1  0.50000000  0.68281353  0.52816772  1
  C  C149  1  0.50000000  0.68281324  0.86099486  1
  H  H150  1  0.50000000  0.74026636  0.20339912  1
  H  H151  1  0.50000000  0.74116078  0.53697634  1
  H  H152  1  0.50000000  0.74117431  0.86974673  1
  H  H153  1  0.50000000  0.74030689  0.29645445  1
  H  H154  1  0.50000000  0.74119061  0.63013317  1
  H  H155  1  0.50000000  0.74113557  0.96316874  1
  H  H156  1  0.50000000  0.25956663  0.28644031  1
  H  H157  1  0.50000000  0.25908499  0.61996948  1
  H  H158  1  0.50000000  0.25904520  0.95358477  1
  H  H159  1  0.50000000  0.25911269  0.04670038  1
  H  H160  1  0.50000000  0.25943608  0.37984351  1
  H  H161  1  0.50000000  0.25912364  0.71337357  1
  H  H162  1  0.50000000  0.74121891  0.03721559  1
  H  H163  1  0.50000000  0.74046467  0.36969057  1
  H  H164  1  0.50000000  0.74102203  0.70340518  1
  H  H165  1  0.50000000  0.74042162  0.13048552  1
  H  H166  1  0.50000000  0.74122771  0.46268234  1
  H  H167  1  0.50000000  0.74098781  0.79674498  1
  H  H168  1  0.50000000  0.25940279  0.12033892  1
  H  H169  1  0.50000000  0.25914023  0.45316577  1
  H  H170  1  0.50000000  0.25913411  0.78661567  1
  H  H171  1  0.50000000  0.25957705  0.21354193  1
  H  H172  1  0.50000000  0.25906575  0.54651661  1
  H  H173  1  0.50000000  0.25905499  0.87985874  1
  H  H174  1  0.50000000  0.50890261  0.28722276  1
  H  H175  1  0.50000000  0.54965079  0.01078672  1
  H  H176  1  0.50000000  0.59050763  0.28720334  1
  H  H177  1  0.50000000  0.50746329  0.04678665  1
  H  H178  1  0.50000000  0.50886727  0.38021800  1
  H  H179  1  0.50000000  0.59203017  0.04667693  1
  H  H180  1  0.50000000  0.59061345  0.38027533  1
  H  H181  1  0.50000000  0.50889680  0.11995116  1
  H  H182  1  0.50000000  0.50741490  0.45300821  1
  H  H183  1  0.50000000  0.59056300  0.11990132  1
  H  H184  1  0.50000000  0.59205989  0.45312485  1
  H  H185  1  0.50000000  0.50888750  0.21287555  1
  H  H186  1  0.50000000  0.54964681  0.48912949  1
  H  H187  1  0.50000000  0.59051521  0.21288468  1
