# generated using pymatgen
data_H13C75
_symmetry_space_group_name_H-M   'P 1'
_cell_length_a   20.00000000
_cell_length_b   37.22700000
_cell_length_c   25.75422881
_cell_angle_alpha   90.00000000
_cell_angle_beta   90.00000000
_cell_angle_gamma   90.00000000
_symmetry_Int_Tables_number   1
_chemical_formula_structural   H13C75
_chemical_formula_sum   'H26 C150'
_cell_volume   19175.05351679
_cell_formula_units_Z   2
loop_
 _symmetry_equiv_pos_site_id
 _symmetry_equiv_pos_as_xyz
  1  'x, y, z'
loop_
 _atom_site_type_symbol
 _atom_site_label
 _atom_site_symmetry_multiplicity
 _atom_site_fract_x
 _atom_site_fract_y
 _atom_site_fract_z
 _atom_site_occupancy
  C  C0  1  0.50000000  0.31750994  0.22211432  1
  C  C1  1  0.50000000  0.31743485  0.55544905  1
  C  C2  1  0.50000000  0.31744698  0.88876624  1
  C  C3  1  0.50000000  0.38393837  0.22234756  1
  C  C4  1  0.50000000  0.38384862  0.55570578  1
  C  C5  1  0.50000000  0.38387859  0.88899646  1
  C  C6  1  0.50000000  0.45034306  0.22220574  1
  C  C7  1  0.50000000  0.45017739  0.55563398  1
  C  C8  1  0.50000000  0.45023170  0.88880906  1
  C  C9  1  0.50000000  0.51670419  0.22234265  1
  C  C10  1  0.50000000  0.51652067  0.55583332  1
  C  C11  1  0.50000000  0.51664999  0.88885011  1
  C  C12  1  0.50000000  0.58312504  0.22207094  1
  C  C13  1  0.50000000  0.58286691  0.55578683  1
  C  C14  1  0.50000000  0.58308249  0.88871081  1
  C  C15  1  0.50000000  0.64998625  0.55533413  1
  C  C16  1  0.50000000  0.64985786  0.88921815  1
  C  C17  1  0.50000000  0.71540295  0.55582454  1
  C  C18  1  0.50000000  0.71556961  0.89016621  1
  C  C19  1  0.50000000  0.31750938  0.27788590  1
  C  C20  1  0.50000000  0.31744504  0.61123859  1
  C  C21  1  0.50000000  0.31743499  0.94455565  1
  C  C22  1  0.50000000  0.38393845  0.27765359  1
  C  C23  1  0.50000000  0.38387867  0.61100658  1
  C  C24  1  0.50000000  0.38384911  0.94429699  1
  C  C25  1  0.50000000  0.45034333  0.27779637  1
  C  C26  1  0.50000000  0.45023495  0.61119476  1
  C  C27  1  0.50000000  0.45017618  0.94436950  1
  C  C28  1  0.50000000  0.51670468  0.27765999  1
  C  C29  1  0.50000000  0.51665560  0.61115721  1
  C  C30  1  0.50000000  0.51651701  0.94417360  1
  C  C31  1  0.50000000  0.58312578  0.27793089  1
  C  C32  1  0.50000000  0.58308940  0.61129767  1
  C  C33  1  0.50000000  0.58286457  0.94422230  1
  C  C34  1  0.50000000  0.64986931  0.61077789  1
  C  C35  1  0.50000000  0.64998514  0.94466335  1
  C  C36  1  0.50000000  0.71557945  0.60980045  1
  C  C37  1  0.50000000  0.71540865  0.94413786  1
  C  C38  1  0.50000000  0.28503437  0.30661953  1
  C  C39  1  0.50000000  0.28498235  0.64003202  1
  C  C40  1  0.50000000  0.28498325  0.97335968  1
  C  C41  1  0.50000000  0.35063596  0.30550363  1
  C  C42  1  0.50000000  0.35059100  0.63885445  1
  C  C43  1  0.50000000  0.35055953  0.97218217  1
  C  C44  1  0.50000000  0.41714004  0.30557669  1
  C  C45  1  0.50000000  0.41707599  0.63895566  1
  C  C46  1  0.50000000  0.41702753  0.97221936  1
  C  C47  1  0.50000000  0.48350516  0.30559234  1
  C  C48  1  0.50000000  0.48343692  0.63901477  1
  C  C49  1  0.50000000  0.48333726  0.97214317  1
  C  C50  1  0.50000000  0.54999424  0.30556620  1
  C  C51  1  0.50000000  0.54996595  0.63899514  1
  C  C52  1  0.50000000  0.54973899  0.97203443  1
  C  C53  1  0.50000000  0.61552945  0.30673530  1
  C  C54  1  0.50000000  0.61645666  0.63895182  1
  C  C55  1  0.50000000  0.61589686  0.97247190  1
  C  C56  1  0.50000000  0.68322536  0.63821793  1
  C  C57  1  0.50000000  0.68297787  0.97112281  1
  C  C58  1  0.50000000  0.28498031  0.02668872  1
  C  C59  1  0.50000000  0.28500333  0.35993996  1
  C  C60  1  0.50000000  0.28500915  0.69336778  1
  C  C61  1  0.50000000  0.35055955  0.02783843  1
  C  C62  1  0.50000000  0.35059650  0.36113967  1
  C  C63  1  0.50000000  0.35062225  0.69449584  1
  C  C64  1  0.50000000  0.41701912  0.02773073  1
  C  C65  1  0.50000000  0.41709846  0.36107853  1
  C  C66  1  0.50000000  0.41710800  0.69444996  1
  C  C67  1  0.50000000  0.48329542  0.02764179  1
  C  C68  1  0.50000000  0.48346481  0.36114105  1
  C  C69  1  0.50000000  0.48347917  0.69446287  1
  C  C70  1  0.50000000  0.54956776  0.02752204  1
  C  C71  1  0.50000000  0.54995263  0.36124006  1
  C  C72  1  0.50000000  0.55001101  0.69451576  1
  C  C73  1  0.50000000  0.61485985  0.02645677  1
  C  C74  1  0.50000000  0.61546869  0.36013551  1
  C  C75  1  0.50000000  0.61643383  0.69418999  1
  C  C76  1  0.50000000  0.68299576  0.69459972  1
  C  C77  1  0.50000000  0.31743574  0.05547926  1
  C  C78  1  0.50000000  0.31745362  0.38873972  1
  C  C79  1  0.50000000  0.31749390  0.72210949  1
  C  C80  1  0.50000000  0.38384889  0.05569704  1
  C  C81  1  0.50000000  0.38388596  0.38899690  1
  C  C82  1  0.50000000  0.38391871  0.72236092  1
  C  C83  1  0.50000000  0.45017273  0.05551605  1
  C  C84  1  0.50000000  0.45025717  0.38891063  1
  C  C85  1  0.50000000  0.45027945  0.72222873  1
  C  C86  1  0.50000000  0.51645169  0.05554376  1
  C  C87  1  0.50000000  0.51659488  0.38909642  1
  C  C88  1  0.50000000  0.51674159  0.72232103  1
  C  C89  1  0.50000000  0.58278661  0.05500202  1
  C  C90  1  0.50000000  0.58300999  0.38888794  1
  C  C91  1  0.50000000  0.58322408  0.72216125  1
  C  C92  1  0.50000000  0.64988467  0.72217293  1
  C  C93  1  0.50000000  0.71532235  0.72325563  1
  C  C94  1  0.50000000  0.31745560  0.11125945  1
  C  C95  1  0.50000000  0.31743537  0.44452012  1
  C  C96  1  0.50000000  0.31749438  0.77789450  1
  C  C97  1  0.50000000  0.38388661  0.11100463  1
  C  C98  1  0.50000000  0.38384781  0.44430495  1
  C  C99  1  0.50000000  0.38391865  0.77764236  1
  C  C100  1  0.50000000  0.45025709  0.11109183  1
  C  C101  1  0.50000000  0.45017235  0.44448676  1
  C  C102  1  0.50000000  0.45027868  0.77777389  1
  C  C103  1  0.50000000  0.51659363  0.11090690  1
  C  C104  1  0.50000000  0.51645196  0.44446091  1
  C  C105  1  0.50000000  0.51673928  0.77768141  1
  C  C106  1  0.50000000  0.58300844  0.11111656  1
  C  C107  1  0.50000000  0.58278283  0.44500278  1
  C  C108  1  0.50000000  0.58322059  0.77783809  1
  C  C109  1  0.50000000  0.64988212  0.77782695  1
  C  C110  1  0.50000000  0.71531853  0.77674860  1
  C  C111  1  0.50000000  0.28500692  0.14005979  1
  C  C112  1  0.50000000  0.28498270  0.47331383  1
  C  C113  1  0.50000000  0.28501142  0.80663814  1
  C  C114  1  0.50000000  0.35059756  0.13886054  1
  C  C115  1  0.50000000  0.35055859  0.47216324  1
  C  C116  1  0.50000000  0.35062254  0.80550773  1
  C  C117  1  0.50000000  0.41709868  0.13892291  1
  C  C118  1  0.50000000  0.41701844  0.47227117  1
  C  C119  1  0.50000000  0.41710799  0.80555212  1
  C  C120  1  0.50000000  0.48346414  0.13886073  1
  C  C121  1  0.50000000  0.48329547  0.47236159  1
  C  C122  1  0.50000000  0.48347584  0.80553991  1
  C  C123  1  0.50000000  0.54995084  0.13876313  1
  C  C124  1  0.50000000  0.54956692  0.47248498  1
  C  C125  1  0.50000000  0.55000828  0.80548878  1
  C  C126  1  0.50000000  0.61546540  0.13986671  1
  C  C127  1  0.50000000  0.61485210  0.47355439  1
  C  C128  1  0.50000000  0.61642859  0.80580642  1
  C  C129  1  0.50000000  0.68299060  0.80540119  1
  C  C130  1  0.50000000  0.28503675  0.19337850  1
  C  C131  1  0.50000000  0.28498563  0.52664184  1
  C  C132  1  0.50000000  0.28498587  0.85997262  1
  C  C133  1  0.50000000  0.35063639  0.19449688  1
  C  C134  1  0.50000000  0.35055892  0.52782082  1
  C  C135  1  0.50000000  0.35059177  0.86114941  1
  C  C136  1  0.50000000  0.41714009  0.19442577  1
  C  C137  1  0.50000000  0.41702751  0.52778416  1
  C  C138  1  0.50000000  0.41707452  0.86104732  1
  C  C139  1  0.50000000  0.48350463  0.19441035  1
  C  C140  1  0.50000000  0.48333949  0.52786243  1
  C  C141  1  0.50000000  0.48343236  0.86098913  1
  C  C142  1  0.50000000  0.54999285  0.19443664  1
  C  C143  1  0.50000000  0.54974104  0.52797460  1
  C  C144  1  0.50000000  0.54996013  0.86101196  1
  C  C145  1  0.50000000  0.61552686  0.19326452  1
  C  C146  1  0.50000000  0.61589622  0.52753563  1
  C  C147  1  0.50000000  0.61644645  0.86104981  1
  C  C148  1  0.50000000  0.68296617  0.52885395  1
  C  C149  1  0.50000000  0.68321229  0.86177377  1
  H  H150  1  0.50000000  0.74081311  0.53441131  1
  H  H151  1  0.50000000  0.74143573  0.87015123  1
  H  H152  1  0.50000000  0.74146047  0.62977149  1
  H  H153  1  0.50000000  0.74082664  0.96553781  1
  H  H154  1  0.50000000  0.25927054  0.28636004  1
  H  H155  1  0.50000000  0.25916447  0.61988682  1
  H  H156  1  0.50000000  0.25915376  0.95327518  1
  H  H157  1  0.50000000  0.25914845  0.04677266  1
  H  H158  1  0.50000000  0.25919904  0.38008464  1
  H  H159  1  0.50000000  0.25922599  0.71361257  1
  H  H160  1  0.50000000  0.74116884  0.70320708  1
  H  H161  1  0.50000000  0.74115880  0.79681377  1
  H  H162  1  0.50000000  0.25920091  0.11992237  1
  H  H163  1  0.50000000  0.25914642  0.45324450  1
  H  H164  1  0.50000000  0.25922415  0.78640635  1
  H  H165  1  0.50000000  0.25926871  0.21362503  1
  H  H166  1  0.50000000  0.25915137  0.54671128  1
  H  H167  1  0.50000000  0.25916653  0.88011092  1
  H  H168  1  0.50000000  0.64136244  0.28663572  1
  H  H169  1  0.50000000  0.68376723  0.01357803  1
  H  H170  1  0.50000000  0.64015478  0.04759045  1
  H  H171  1  0.50000000  0.64134955  0.38015134  1
  H  H172  1  0.50000000  0.64134801  0.11985770  1
  H  H173  1  0.50000000  0.64014611  0.45242021  1
  H  H174  1  0.50000000  0.64136471  0.21334877  1
  H  H175  1  0.50000000  0.68373225  0.48640184  1
