# generated using pymatgen
data_H7C39
_symmetry_space_group_name_H-M   'P 1'
_cell_length_a   20.00000000
_cell_length_b   40.19450000
_cell_length_c   25.96154711
_cell_angle_alpha   90.00000000
_cell_angle_beta   90.00000000
_cell_angle_gamma   90.00000000
_symmetry_Int_Tables_number   1
_chemical_formula_structural   H7C39
_chemical_formula_sum   'H28 C156'
_cell_volume   20870.22810998
_cell_formula_units_Z   4
loop_
 _symmetry_equiv_pos_site_id
 _symmetry_equiv_pos_as_xyz
  1  'x, y, z'
loop_
 _atom_site_type_symbol
 _atom_site_label
 _atom_site_symmetry_multiplicity
 _atom_site_fract_x
 _atom_site_fract_y
 _atom_site_fract_z
 _atom_site_occupancy
  C  C0  1  0.50000000  0.28410617  0.61669726  1
  C  C1  1  0.50000000  0.28598329  0.77632407  1
  C  C2  1  0.50000000  0.28254471  0.93617981  1
  C  C3  1  0.50000000  0.31530311  0.64084140  1
  C  C4  1  0.50000000  0.31606065  0.80405588  1
  C  C5  1  0.50000000  0.31176498  0.96443422  1
  C  C6  1  0.50000000  0.28254934  0.56397078  1
  C  C7  1  0.50000000  0.28598236  0.72379734  1
  C  C8  1  0.50000000  0.28407898  0.88344541  1
  C  C9  1  0.50000000  0.34854916  0.11331323  1
  C  C10  1  0.50000000  0.34563947  0.61202081  1
  C  C11  1  0.50000000  0.34797082  0.27641166  1
  C  C12  1  0.50000000  0.34671268  0.77753061  1
  C  C13  1  0.50000000  0.34825526  0.43913718  1
  C  C14  1  0.50000000  0.34429437  0.94343136  1
  C  C15  1  0.50000000  0.37854165  0.14062211  1
  C  C16  1  0.50000000  0.37688460  0.63914197  1
  C  C17  1  0.50000000  0.37825681  0.30451970  1
  C  C18  1  0.50000000  0.37734339  0.80579035  1
  C  C19  1  0.50000000  0.37687374  0.47137436  1
  C  C20  1  0.50000000  0.37566341  0.97292348  1
  C  C21  1  0.50000000  0.31176162  0.53568423  1
  C  C22  1  0.50000000  0.31606156  0.69606058  1
  C  C23  1  0.50000000  0.31528345  0.85928237  1
  C  C24  1  0.50000000  0.34824075  0.06095832  1
  C  C25  1  0.50000000  0.34429553  0.55666739  1
  C  C26  1  0.50000000  0.34797446  0.22369124  1
  C  C27  1  0.50000000  0.34671232  0.72257871  1
  C  C28  1  0.50000000  0.34856885  0.38678745  1
  C  C29  1  0.50000000  0.34563144  0.88807832  1
  C  C30  1  0.50000000  0.40846345  0.11149604  1
  C  C31  1  0.50000000  0.40735651  0.61079405  1
  C  C32  1  0.50000000  0.40880173  0.27755187  1
  C  C33  1  0.50000000  0.40792776  0.77796400  1
  C  C34  1  0.50000000  0.40794963  0.44423470  1
  C  C35  1  0.50000000  0.40666767  0.94521626  1
  C  C36  1  0.50000000  0.43914801  0.13904143  1
  C  C37  1  0.50000000  0.43818139  0.63858144  1
  C  C38  1  0.50000000  0.43921347  0.30583004  1
  C  C39  1  0.50000000  0.43845497  0.80592386  1
  C  C40  1  0.50000000  0.43854110  0.47230633  1
  C  C41  1  0.50000000  0.43802902  0.97252416  1
  C  C42  1  0.50000000  0.37685966  0.02870843  1
  C  C43  1  0.50000000  0.37566593  0.52715602  1
  C  C44  1  0.50000000  0.37825584  0.19556541  1
  C  C45  1  0.50000000  0.37733926  0.69429680  1
  C  C46  1  0.50000000  0.37855270  0.35946660  1
  C  C47  1  0.50000000  0.37688323  0.86094534  1
  C  C48  1  0.50000000  0.40793847  0.05583020  1
  C  C49  1  0.50000000  0.40667485  0.55483852  1
  C  C50  1  0.50000000  0.40880765  0.22250088  1
  C  C51  1  0.50000000  0.40792897  0.72209735  1
  C  C52  1  0.50000000  0.40847439  0.38857270  1
  C  C53  1  0.50000000  0.40735940  0.88926139  1
  C  C54  1  0.50000000  0.46954308  0.11079094  1
  C  C55  1  0.50000000  0.46918793  0.61088173  1
  C  C56  1  0.50000000  0.46963466  0.27770766  1
  C  C57  1  0.50000000  0.46929955  0.77775407  1
  C  C58  1  0.50000000  0.46939888  0.44456237  1
  C  C59  1  0.50000000  0.46905923  0.94447779  1
  C  C60  1  0.50000000  0.49999177  0.13877078  1
  C  C61  1  0.50000000  0.49999554  0.63862893  1
  C  C62  1  0.50000000  0.50000354  0.30579333  1
  C  C63  1  0.50000000  0.49999779  0.80554166  1
  C  C64  1  0.50000000  0.50000414  0.47248079  1
  C  C65  1  0.50000000  0.49999832  0.97213112  1
  C  C66  1  0.50000000  0.43852788  0.02774652  1
  C  C67  1  0.50000000  0.43803484  0.52752181  1
  C  C68  1  0.50000000  0.43921569  0.19421048  1
  C  C69  1  0.50000000  0.43845126  0.69410845  1
  C  C70  1  0.50000000  0.43915009  0.36099926  1
  C  C71  1  0.50000000  0.43818371  0.86145804  1
  C  C72  1  0.50000000  0.46938668  0.05546507  1
  C  C73  1  0.50000000  0.46905849  0.55555975  1
  C  C74  1  0.50000000  0.46963422  0.22233077  1
  C  C75  1  0.50000000  0.46929896  0.72225326  1
  C  C76  1  0.50000000  0.46955288  0.38922819  1
  C  C77  1  0.50000000  0.46919053  0.88915163  1
  C  C78  1  0.50000000  0.53044302  0.11079405  1
  C  C79  1  0.50000000  0.53080255  0.61087753  1
  C  C80  1  0.50000000  0.53036881  0.27770048  1
  C  C81  1  0.50000000  0.53069368  0.77774507  1
  C  C82  1  0.50000000  0.53060758  0.44455951  1
  C  C83  1  0.50000000  0.53094263  0.94447052  1
  C  C84  1  0.50000000  0.56084209  0.13903719  1
  C  C85  1  0.50000000  0.56181219  0.63856040  1
  C  C86  1  0.50000000  0.56078956  0.30582520  1
  C  C87  1  0.50000000  0.56153642  0.80590752  1
  C  C88  1  0.50000000  0.56146376  0.47229602  1
  C  C89  1  0.50000000  0.56197032  0.97250678  1
  C  C90  1  0.50000000  0.49999227  0.02754467  1
  C  C91  1  0.50000000  0.49999677  0.52789109  1
  C  C92  1  0.50000000  0.49999545  0.19424347  1
  C  C93  1  0.50000000  0.49999608  0.69446435  1
  C  C94  1  0.50000000  0.50000802  0.36126548  1
  C  C95  1  0.50000000  0.49999761  0.86139370  1
  C  C96  1  0.50000000  0.53059795  0.05546762  1
  C  C97  1  0.50000000  0.53093611  0.55555592  1
  C  C98  1  0.50000000  0.53036080  0.22232277  1
  C  C99  1  0.50000000  0.53069660  0.72224560  1
  C  C100  1  0.50000000  0.53046024  0.38922871  1
  C  C101  1  0.50000000  0.53080580  0.88914471  1
  C  C102  1  0.50000000  0.59152378  0.11148277  1
  C  C103  1  0.50000000  0.59263827  0.61076728  1
  C  C104  1  0.50000000  0.59119768  0.27753864  1
  C  C105  1  0.50000000  0.59206443  0.77794270  1
  C  C106  1  0.50000000  0.59206185  0.44421937  1
  C  C107  1  0.50000000  0.59332478  0.94520144  1
  C  C108  1  0.50000000  0.62144766  0.14060373  1
  C  C109  1  0.50000000  0.62310432  0.63911145  1
  C  C110  1  0.50000000  0.62174564  0.30449867  1
  C  C111  1  0.50000000  0.62265007  0.80576121  1
  C  C112  1  0.50000000  0.62314400  0.47134460  1
  C  C113  1  0.50000000  0.62433075  0.97290151  1
  C  C114  1  0.50000000  0.56145919  0.02772410  1
  C  C115  1  0.50000000  0.56196026  0.52750756  1
  C  C116  1  0.50000000  0.56078029  0.19420913  1
  C  C117  1  0.50000000  0.56154249  0.69408898  1
  C  C118  1  0.50000000  0.56085795  0.36099210  1
  C  C119  1  0.50000000  0.56180759  0.86143994  1
  C  C120  1  0.50000000  0.59204542  0.05581403  1
  C  C121  1  0.50000000  0.59332356  0.55481498  1
  C  C122  1  0.50000000  0.59118909  0.22249061  1
  C  C123  1  0.50000000  0.59206401  0.72207264  1
  C  C124  1  0.50000000  0.59153354  0.38856037  1
  C  C125  1  0.50000000  0.59263427  0.88923430  1
  C  C126  1  0.50000000  0.65143746  0.11329115  1
  C  C127  1  0.50000000  0.65435239  0.61198854  1
  C  C128  1  0.50000000  0.65202856  0.27637892  1
  C  C129  1  0.50000000  0.65328044  0.77749981  1
  C  C130  1  0.50000000  0.65176426  0.43909947  1
  C  C131  1  0.50000000  0.65569776  0.94340413  1
  C  C132  1  0.50000000  0.68468981  0.64080611  1
  C  C133  1  0.50000000  0.68393075  0.80402596  1
  C  C134  1  0.50000000  0.68822534  0.96441177  1
  C  C135  1  0.50000000  0.62312592  0.02868825  1
  C  C136  1  0.50000000  0.62433310  0.52712546  1
  C  C137  1  0.50000000  0.62173505  0.19554497  1
  C  C138  1  0.50000000  0.62264926  0.69426571  1
  C  C139  1  0.50000000  0.62145007  0.35944353  1
  C  C140  1  0.50000000  0.62310925  0.86091462  1
  C  C141  1  0.50000000  0.65174501  0.06093617  1
  C  C142  1  0.50000000  0.65569789  0.55663755  1
  C  C143  1  0.50000000  0.65201731  0.22365976  1
  C  C144  1  0.50000000  0.65327712  0.72254478  1
  C  C145  1  0.50000000  0.65143853  0.38675041  1
  C  C146  1  0.50000000  0.65435838  0.88805234  1
  C  C147  1  0.50000000  0.71588652  0.61666208  1
  C  C148  1  0.50000000  0.71400806  0.77629403  1
  C  C149  1  0.50000000  0.71744282  0.93615218  1
  C  C150  1  0.50000000  0.68823124  0.53565647  1
  C  C151  1  0.50000000  0.68392850  0.69602565  1
  C  C152  1  0.50000000  0.68470552  0.85925465  1
  C  C153  1  0.50000000  0.71744513  0.56393559  1
  C  C154  1  0.50000000  0.71400632  0.72376140  1
  C  C155  1  0.50000000  0.71590976  0.88341895  1
  H  H156  1  0.50000000  0.26105567  0.63861387  1
  H  H157  1  0.50000000  0.26198037  0.79576799  1
  H  H158  1  0.50000000  0.25859087  0.95630898  1
  H  H159  1  0.50000000  0.25857344  0.54392333  1
  H  H160  1  0.50000000  0.26197362  0.70437564  1
  H  H161  1  0.50000000  0.26100688  0.86157222  1
  H  H162  1  0.50000000  0.73893364  0.63858599  1
  H  H163  1  0.50000000  0.73801024  0.79573473  1
  H  H164  1  0.50000000  0.74139068  0.95629132  1
  H  H165  1  0.50000000  0.74142760  0.54390084  1
  H  H166  1  0.50000000  0.73801559  0.70434145  1
  H  H167  1  0.50000000  0.73898613  0.86155328  1
  H  H168  1  0.50000000  0.67541245  0.13302092  1
  H  H169  1  0.50000000  0.67592269  0.29637889  1
  H  H170  1  0.50000000  0.67647821  0.45375108  1
  H  H171  1  0.50000000  0.69364766  0.00466598  1
  H  H172  1  0.50000000  0.67645002  0.04625039  1
  H  H173  1  0.50000000  0.67589256  0.20361173  1
  H  H174  1  0.50000000  0.67541277  0.36703075  1
  H  H175  1  0.50000000  0.69362354  0.49539705  1
  H  H176  1  0.50000000  0.30634239  0.00468592  1
  H  H177  1  0.50000000  0.32457208  0.13304073  1
  H  H178  1  0.50000000  0.32408458  0.29643343  1
  H  H179  1  0.50000000  0.32354715  0.45380881  1
  H  H180  1  0.50000000  0.30636940  0.49542233  1
  H  H181  1  0.50000000  0.32353505  0.04627761  1
  H  H182  1  0.50000000  0.32409499  0.20365102  1
  H  H183  1  0.50000000  0.32458869  0.36708843  1
