# generated using pymatgen
data_H19C75
_symmetry_space_group_name_H-M   'P 1'
_cell_length_a   20.00000000
_cell_length_b   37.22700000
_cell_length_c   25.87037035
_cell_angle_alpha   90.00000000
_cell_angle_beta   90.00000000
_cell_angle_gamma   90.00000000
_symmetry_Int_Tables_number   1
_chemical_formula_structural   H19C75
_chemical_formula_sum   'H38 C150'
_cell_volume   19261.52554039
_cell_formula_units_Z   2
loop_
 _symmetry_equiv_pos_site_id
 _symmetry_equiv_pos_as_xyz
  1  'x, y, z'
loop_
 _atom_site_type_symbol
 _atom_site_label
 _atom_site_symmetry_multiplicity
 _atom_site_fract_x
 _atom_site_fract_y
 _atom_site_fract_z
 _atom_site_occupancy
  C  C0  1  0.50000000  0.31789342  0.22203247  1
  C  C1  1  0.50000000  0.31749240  0.55524951  1
  C  C2  1  0.50000000  0.31739060  0.88873782  1
  C  C3  1  0.50000000  0.38423707  0.22232298  1
  C  C4  1  0.50000000  0.38384198  0.55574555  1
  C  C5  1  0.50000000  0.38375492  0.88894098  1
  C  C6  1  0.50000000  0.45029995  0.22228781  1
  C  C7  1  0.50000000  0.44995142  0.55591182  1
  C  C8  1  0.50000000  0.44991201  0.88869718  1
  C  C9  1  0.50000000  0.51666451  0.22193796  1
  C  C10  1  0.50000000  0.51628951  0.55627553  1
  C  C11  1  0.50000000  0.51625629  0.88820286  1
  C  C12  1  0.50000000  0.58309226  0.55710684  1
  C  C13  1  0.50000000  0.58269627  0.88781984  1
  C  C14  1  0.50000000  0.64930847  0.55715581  1
  C  C15  1  0.50000000  0.64934361  0.88745697  1
  C  C16  1  0.50000000  0.71400112  0.22352456  1
  C  C17  1  0.50000000  0.71589570  0.55872361  1
  C  C18  1  0.50000000  0.71540739  0.88858137  1
  C  C19  1  0.50000000  0.31789060  0.27803494  1
  C  C20  1  0.50000000  0.31741262  0.61123130  1
  C  C21  1  0.50000000  0.31748107  0.94472099  1
  C  C22  1  0.50000000  0.38423653  0.27770764  1
  C  C23  1  0.50000000  0.38376881  0.61103920  1
  C  C24  1  0.50000000  0.38383340  0.94425594  1
  C  C25  1  0.50000000  0.45029601  0.27772844  1
  C  C26  1  0.50000000  0.44991942  0.61129540  1
  C  C27  1  0.50000000  0.44994856  0.94408929  1
  C  C28  1  0.50000000  0.51666823  0.27814174  1
  C  C29  1  0.50000000  0.51626409  0.61177679  1
  C  C30  1  0.50000000  0.51628755  0.94370051  1
  C  C31  1  0.50000000  0.58269599  0.61214941  1
  C  C32  1  0.50000000  0.58308885  0.94286477  1
  C  C33  1  0.50000000  0.64935439  0.61251326  1
  C  C34  1  0.50000000  0.64930023  0.94280671  1
  C  C35  1  0.50000000  0.71403538  0.27638758  1
  C  C36  1  0.50000000  0.71542225  0.61131507  1
  C  C37  1  0.50000000  0.71589884  0.94118241  1
  C  C38  1  0.50000000  0.28554193  0.30662922  1
  C  C39  1  0.50000000  0.28504975  0.63990231  1
  C  C40  1  0.50000000  0.28521320  0.97354763  1
  C  C41  1  0.50000000  0.35090748  0.30560297  1
  C  C42  1  0.50000000  0.35044620  0.63888854  1
  C  C43  1  0.50000000  0.35058688  0.97225334  1
  C  C44  1  0.50000000  0.41727350  0.30549310  1
  C  C45  1  0.50000000  0.41680841  0.63892504  1
  C  C46  1  0.50000000  0.41696968  0.97195477  1
  C  C47  1  0.50000000  0.48358158  0.30579260  1
  C  C48  1  0.50000000  0.48310763  0.63929223  1
  C  C49  1  0.50000000  0.48328107  0.97183667  1
  C  C50  1  0.50000000  0.54886242  0.30698739  1
  C  C51  1  0.50000000  0.54935408  0.63961114  1
  C  C52  1  0.50000000  0.54943726  0.97138522  1
  C  C53  1  0.50000000  0.61596668  0.63974042  1
  C  C54  1  0.50000000  0.61632800  0.96832373  1
  C  C55  1  0.50000000  0.68254960  0.30776241  1
  C  C56  1  0.50000000  0.68250433  0.64008172  1
  C  C57  1  0.50000000  0.68345281  0.97094553  1
  C  C58  1  0.50000000  0.28532277  0.02680878  1
  C  C59  1  0.50000000  0.28549569  0.35988736  1
  C  C60  1  0.50000000  0.28499866  0.69319313  1
  C  C61  1  0.50000000  0.35067911  0.02777289  1
  C  C62  1  0.50000000  0.35086358  0.36110375  1
  C  C63  1  0.50000000  0.35039836  0.69439965  1
  C  C64  1  0.50000000  0.41703278  0.02770049  1
  C  C65  1  0.50000000  0.41725865  0.36135803  1
  C  C66  1  0.50000000  0.41677443  0.69457637  1
  C  C67  1  0.50000000  0.48323459  0.02717937  1
  C  C68  1  0.50000000  0.48358990  0.36141933  1
  C  C69  1  0.50000000  0.48309569  0.69455734  1
  C  C70  1  0.50000000  0.54846205  0.02565019  1
  C  C71  1  0.50000000  0.54877939  0.36040292  1
  C  C72  1  0.50000000  0.54937803  0.69475366  1
  C  C73  1  0.50000000  0.61588711  0.69496163  1
  C  C74  1  0.50000000  0.68459764  0.02450086  1
  C  C75  1  0.50000000  0.68296387  0.36073643  1
  C  C76  1  0.50000000  0.68241646  0.69479638  1
  C  C77  1  0.50000000  0.31767984  0.05544073  1
  C  C78  1  0.50000000  0.31778059  0.38860647  1
  C  C79  1  0.50000000  0.31730873  0.72198220  1
  C  C80  1  0.50000000  0.38401570  0.05560461  1
  C  C81  1  0.50000000  0.38412667  0.38906254  1
  C  C82  1  0.50000000  0.38367231  0.72233850  1
  C  C83  1  0.50000000  0.45012813  0.05534061  1
  C  C84  1  0.50000000  0.45018702  0.38918078  1
  C  C85  1  0.50000000  0.44985424  0.72230594  1
  C  C86  1  0.50000000  0.51662587  0.05439841  1
  C  C87  1  0.50000000  0.51660279  0.38916126  1
  C  C88  1  0.50000000  0.51621518  0.72230725  1
  C  C89  1  0.50000000  0.58264631  0.72244944  1
  C  C90  1  0.50000000  0.64906794  0.72241654  1
  C  C91  1  0.50000000  0.71573526  0.05565917  1
  C  C92  1  0.50000000  0.71483754  0.39114121  1
  C  C93  1  0.50000000  0.71505076  0.72366669  1
  C  C94  1  0.50000000  0.31776016  0.11142837  1
  C  C95  1  0.50000000  0.31769198  0.44459241  1
  C  C96  1  0.50000000  0.31730972  0.77795282  1
  C  C97  1  0.50000000  0.38412196  0.11096113  1
  C  C98  1  0.50000000  0.38402082  0.44440946  1
  C  C99  1  0.50000000  0.38366990  0.77763529  1
  C  C100  1  0.50000000  0.45020527  0.11084337  1
  C  C101  1  0.50000000  0.45011250  0.44467630  1
  C  C102  1  0.50000000  0.44984939  0.77767571  1
  C  C103  1  0.50000000  0.51665815  0.11086985  1
  C  C104  1  0.50000000  0.51658302  0.44562734  1
  C  C105  1  0.50000000  0.51621192  0.77767020  1
  C  C106  1  0.50000000  0.58263596  0.77751660  1
  C  C107  1  0.50000000  0.64905269  0.77752778  1
  C  C108  1  0.50000000  0.71471292  0.10889850  1
  C  C109  1  0.50000000  0.71580363  0.44435867  1
  C  C110  1  0.50000000  0.71502510  0.77637578  1
  C  C111  1  0.50000000  0.28548834  0.14019073  1
  C  C112  1  0.50000000  0.28531429  0.47318037  1
  C  C113  1  0.50000000  0.28500504  0.80673457  1
  C  C114  1  0.50000000  0.35085062  0.13893041  1
  C  C115  1  0.50000000  0.35068834  0.47223742  1
  C  C116  1  0.50000000  0.35039177  0.80556285  1
  C  C117  1  0.50000000  0.41726741  0.13866440  1
  C  C118  1  0.50000000  0.41703122  0.47230643  1
  C  C119  1  0.50000000  0.41676946  0.80540771  1
  C  C120  1  0.50000000  0.48361827  0.13860572  1
  C  C121  1  0.50000000  0.48321737  0.47283531  1
  C  C122  1  0.50000000  0.48308961  0.80542560  1
  C  C123  1  0.50000000  0.54882229  0.13970221  1
  C  C124  1  0.50000000  0.54845715  0.47430606  1
  C  C125  1  0.50000000  0.54936977  0.80521671  1
  C  C126  1  0.50000000  0.61587341  0.80500368  1
  C  C127  1  0.50000000  0.68284020  0.13934316  1
  C  C128  1  0.50000000  0.68464001  0.47547344  1
  C  C129  1  0.50000000  0.68236965  0.80515823  1
  C  C130  1  0.50000000  0.28555466  0.19344052  1
  C  C131  1  0.50000000  0.28520568  0.52645628  1
  C  C132  1  0.50000000  0.28503707  0.86002004  1
  C  C133  1  0.50000000  0.35090139  0.19444226  1
  C  C134  1  0.50000000  0.35060158  0.52774286  1
  C  C135  1  0.50000000  0.35043136  0.86108153  1
  C  C136  1  0.50000000  0.41727556  0.19453126  1
  C  C137  1  0.50000000  0.41697074  0.52805013  1
  C  C138  1  0.50000000  0.41679852  0.86106083  1
  C  C139  1  0.50000000  0.48359101  0.19424980  1
  C  C140  1  0.50000000  0.48327813  0.52817473  1
  C  C141  1  0.50000000  0.48310073  0.86069057  1
  C  C142  1  0.50000000  0.54886011  0.19313458  1
  C  C143  1  0.50000000  0.54944994  0.52857088  1
  C  C144  1  0.50000000  0.54935123  0.86036046  1
  C  C145  1  0.50000000  0.61632656  0.53165641  1
  C  C146  1  0.50000000  0.61595926  0.86021808  1
  C  C147  1  0.50000000  0.68246675  0.19232234  1
  C  C148  1  0.50000000  0.68345853  0.52901733  1
  C  C149  1  0.50000000  0.68246710  0.85987666  1
  H  H150  1  0.50000000  0.74013905  0.20409906  1
  H  H151  1  0.50000000  0.74178261  0.53871498  1
  H  H152  1  0.50000000  0.74099895  0.86801030  1
  H  H153  1  0.50000000  0.74025911  0.29555208  1
  H  H154  1  0.50000000  0.74107430  0.63175813  1
  H  H155  1  0.50000000  0.74179643  0.96112653  1
  H  H156  1  0.50000000  0.25974242  0.28657413  1
  H  H157  1  0.50000000  0.25921204  0.61986802  1
  H  H158  1  0.50000000  0.25931244  0.95373466  1
  H  H159  1  0.50000000  0.25948176  0.04674363  1
  H  H160  1  0.50000000  0.25967688  0.37988598  1
  H  H161  1  0.50000000  0.25913968  0.71317427  1
  H  H162  1  0.50000000  0.74228869  0.03730555  1
  H  H163  1  0.50000000  0.74062031  0.37079490  1
  H  H164  1  0.50000000  0.74085672  0.70366513  1
  H  H165  1  0.50000000  0.74050491  0.12919974  1
  H  H166  1  0.50000000  0.74236973  0.46265964  1
  H  H167  1  0.50000000  0.74077697  0.79652327  1
  H  H168  1  0.50000000  0.25959339  0.12040719  1
  H  H169  1  0.50000000  0.25954189  0.45303451  1
  H  H170  1  0.50000000  0.25913416  0.78679067  1
  H  H171  1  0.50000000  0.25973262  0.21341878  1
  H  H172  1  0.50000000  0.25936754  0.54645889  1
  H  H173  1  0.50000000  0.25913372  0.87986866  1
  H  H174  1  0.50000000  0.57478770  0.28720453  1
  H  H175  1  0.50000000  0.61636964  0.01040937  1
  H  H176  1  0.50000000  0.65628235  0.28860913  1
  H  H177  1  0.50000000  0.57391874  0.04638682  1
  H  H178  1  0.50000000  0.57463130  0.38039160  1
  H  H179  1  0.50000000  0.65896376  0.04508467  1
  H  H180  1  0.50000000  0.65693515  0.38052686  1
  H  H181  1  0.50000000  0.57471834  0.11984821  1
  H  H182  1  0.50000000  0.57383036  0.45333460  1
  H  H183  1  0.50000000  0.65675788  0.11971163  1
  H  H184  1  0.50000000  0.65899754  0.45494824  1
  H  H185  1  0.50000000  0.57474241  0.21302715  1
  H  H186  1  0.50000000  0.61634701  0.48955700  1
  H  H187  1  0.50000000  0.65629272  0.21175806  1
