# generated using pymatgen
data_H5C28
_symmetry_space_group_name_H-M   'P 1'
_cell_length_a   10.00000000
_cell_length_b   41.10890000
_cell_length_c   25.87378874
_cell_angle_alpha   90.00000000
_cell_angle_beta   90.00000000
_cell_angle_gamma   90.00000000
_symmetry_Int_Tables_number   1
_chemical_formula_structural   H5C28
_chemical_formula_sum   'H30 C168'
_cell_volume   10636.42994023
_cell_formula_units_Z   6
loop_
 _symmetry_equiv_pos_site_id
 _symmetry_equiv_pos_as_xyz
  1  'x, y, z'
loop_
 _atom_site_type_symbol
 _atom_site_label
 _atom_site_symmetry_multiplicity
 _atom_site_fract_x
 _atom_site_fract_y
 _atom_site_fract_z
 _atom_site_occupancy
  C  C0  1  0.50000000  0.28847796  0.30568755  1
  C  C1  1  0.50000000  0.29017895  0.63911855  1
  C  C2  1  0.50000000  0.28965597  0.97138783  1
  C  C3  1  0.50000000  0.34847519  0.30582755  1
  C  C4  1  0.50000000  0.35035886  0.63921727  1
  C  C5  1  0.50000000  0.34981943  0.97209003  1
  C  C6  1  0.50000000  0.40822525  0.30574609  1
  C  C7  1  0.50000000  0.41051484  0.63886471  1
  C  C8  1  0.50000000  0.40996245  0.97206133  1
  C  C9  1  0.50000000  0.46783770  0.30575093  1
  C  C10  1  0.50000000  0.47095893  0.63847039  1
  C  C11  1  0.50000000  0.47039877  0.97251445  1
  C  C12  1  0.50000000  0.52746267  0.30418325  1
  C  C13  1  0.50000000  0.53107085  0.63905256  1
  C  C14  1  0.50000000  0.53109136  0.97339435  1
  C  C15  1  0.50000000  0.59127914  0.64035711  1
  C  C16  1  0.50000000  0.59243038  0.96577701  1
  C  C17  1  0.50000000  0.65214711  0.64097129  1
  C  C18  1  0.50000000  0.65121074  0.96810579  1
  C  C19  1  0.50000000  0.71253817  0.63865575  1
  C  C20  1  0.50000000  0.71118234  0.97110685  1
  C  C21  1  0.50000000  0.28931316  0.02720415  1
  C  C22  1  0.50000000  0.28866238  0.36166450  1
  C  C23  1  0.50000000  0.29034420  0.69486065  1
  C  C24  1  0.50000000  0.34937829  0.02728342  1
  C  C25  1  0.50000000  0.34868725  0.36112754  1
  C  C26  1  0.50000000  0.35053676  0.69441140  1
  C  C27  1  0.50000000  0.40936593  0.02754552  1
  C  C28  1  0.50000000  0.40846565  0.36124673  1
  C  C29  1  0.50000000  0.41061930  0.69444233  1
  C  C30  1  0.50000000  0.46948080  0.02784810  1
  C  C31  1  0.50000000  0.46811159  0.36094510  1
  C  C32  1  0.50000000  0.47086969  0.69428443  1
  C  C33  1  0.50000000  0.52978752  0.02913195  1
  C  C34  1  0.50000000  0.52730358  0.35892210  1
  C  C35  1  0.50000000  0.53101262  0.69453865  1
  C  C36  1  0.50000000  0.59126162  0.69535993  1
  C  C37  1  0.50000000  0.65199803  0.69584416  1
  C  C38  1  0.50000000  0.71251065  0.69483727  1
  C  C39  1  0.50000000  0.25983109  0.05572894  1
  C  C40  1  0.50000000  0.25950300  0.39091751  1
  C  C41  1  0.50000000  0.26095797  0.72353501  1
  C  C42  1  0.50000000  0.31911457  0.05510177  1
  C  C43  1  0.50000000  0.31870993  0.38918765  1
  C  C44  1  0.50000000  0.32035635  0.72227769  1
  C  C45  1  0.50000000  0.37922974  0.05530917  1
  C  C46  1  0.50000000  0.37871200  0.38914405  1
  C  C47  1  0.50000000  0.38066409  0.72217153  1
  C  C48  1  0.50000000  0.43917899  0.05553286  1
  C  C49  1  0.50000000  0.43846808  0.38913020  1
  C  C50  1  0.50000000  0.44083958  0.72223154  1
  C  C51  1  0.50000000  0.49921293  0.05603673  1
  C  C52  1  0.50000000  0.49822251  0.38829653  1
  C  C53  1  0.50000000  0.50083555  0.72221773  1
  C  C54  1  0.50000000  0.55754566  0.06199022  1
  C  C55  1  0.50000000  0.55677287  0.38566476  1
  C  C56  1  0.50000000  0.56106337  0.72236158  1
  C  C57  1  0.50000000  0.62168451  0.72245728  1
  C  C58  1  0.50000000  0.68247730  0.72252255  1
  C  C59  1  0.50000000  0.74162300  0.72332997  1
  C  C60  1  0.50000000  0.25950068  0.10895196  1
  C  C61  1  0.50000000  0.25981833  0.44414610  1
  C  C62  1  0.50000000  0.26097447  0.77660487  1
  C  C63  1  0.50000000  0.31870907  0.11076365  1
  C  C64  1  0.50000000  0.31911269  0.44485798  1
  C  C65  1  0.50000000  0.32036767  0.77772658  1
  C  C66  1  0.50000000  0.37871119  0.11085799  1
  C  C67  1  0.50000000  0.37923154  0.44469118  1
  C  C68  1  0.50000000  0.38066658  0.77782379  1
  C  C69  1  0.50000000  0.43846113  0.11087392  1
  C  C70  1  0.50000000  0.43918466  0.44446873  1
  C  C71  1  0.50000000  0.44083784  0.77777597  1
  C  C72  1  0.50000000  0.49821421  0.11167024  1
  C  C73  1  0.50000000  0.49920093  0.44392217  1
  C  C74  1  0.50000000  0.50083371  0.77780556  1
  C  C75  1  0.50000000  0.55676648  0.11432922  1
  C  C76  1  0.50000000  0.55750887  0.43801097  1
  C  C77  1  0.50000000  0.56106639  0.77765649  1
  C  C78  1  0.50000000  0.62168950  0.77758282  1
  C  C79  1  0.50000000  0.68247559  0.77753931  1
  C  C80  1  0.50000000  0.74162404  0.77678437  1
  C  C81  1  0.50000000  0.28865172  0.13826636  1
  C  C82  1  0.50000000  0.28929910  0.47271182  1
  C  C83  1  0.50000000  0.29037152  0.80518391  1
  C  C84  1  0.50000000  0.34868402  0.13884312  1
  C  C85  1  0.50000000  0.34937767  0.47269953  1
  C  C86  1  0.50000000  0.35054309  0.80558435  1
  C  C87  1  0.50000000  0.40845985  0.13876852  1
  C  C88  1  0.50000000  0.40936996  0.47243830  1
  C  C89  1  0.50000000  0.41061290  0.80556207  1
  C  C90  1  0.50000000  0.46810539  0.13905369  1
  C  C91  1  0.50000000  0.46949142  0.47214911  1
  C  C92  1  0.50000000  0.47086486  0.80574029  1
  C  C93  1  0.50000000  0.52728736  0.14104477  1
  C  C94  1  0.50000000  0.52975298  0.47084581  1
  C  C95  1  0.50000000  0.53101318  0.80548871  1
  C  C96  1  0.50000000  0.59126363  0.80465685  1
  C  C97  1  0.50000000  0.65200175  0.80420948  1
  C  C98  1  0.50000000  0.71250493  0.80525298  1
  C  C99  1  0.50000000  0.28849184  0.19423458  1
  C  C100  1  0.50000000  0.28965246  0.52852666  1
  C  C101  1  0.50000000  0.29017611  0.86088238  1
  C  C102  1  0.50000000  0.34848534  0.19414993  1
  C  C103  1  0.50000000  0.34982277  0.52788783  1
  C  C104  1  0.50000000  0.35035545  0.86076523  1
  C  C105  1  0.50000000  0.40822413  0.19426086  1
  C  C106  1  0.50000000  0.40997700  0.52792921  1
  C  C107  1  0.50000000  0.41050449  0.86113638  1
  C  C108  1  0.50000000  0.46783262  0.19425084  1
  C  C109  1  0.50000000  0.47043339  0.52749351  1
  C  C110  1  0.50000000  0.47095082  0.86155219  1
  C  C111  1  0.50000000  0.52744265  0.19577076  1
  C  C112  1  0.50000000  0.53104809  0.52658794  1
  C  C113  1  0.50000000  0.53106273  0.86097044  1
  C  C114  1  0.50000000  0.59243620  0.53421891  1
  C  C115  1  0.50000000  0.59128167  0.85964143  1
  C  C116  1  0.50000000  0.65125205  0.53193521  1
  C  C117  1  0.50000000  0.65215007  0.85908723  1
  C  C118  1  0.50000000  0.71121658  0.52906725  1
  C  C119  1  0.50000000  0.71252833  0.86143465  1
  C  C120  1  0.50000000  0.25920459  0.22328226  1
  C  C121  1  0.50000000  0.26043907  0.55756615  1
  C  C122  1  0.50000000  0.26066992  0.88925293  1
  C  C123  1  0.50000000  0.31837181  0.22208977  1
  C  C124  1  0.50000000  0.31977137  0.55590066  1
  C  C125  1  0.50000000  0.32007327  0.88852616  1
  C  C126  1  0.50000000  0.37835307  0.22221087  1
  C  C127  1  0.50000000  0.38004748  0.55570002  1
  C  C128  1  0.50000000  0.38035521  0.88874579  1
  C  C129  1  0.50000000  0.43799960  0.22230167  1
  C  C130  1  0.50000000  0.44035932  0.55557977  1
  C  C131  1  0.50000000  0.44056815  0.88909956  1
  C  C132  1  0.50000000  0.49750932  0.22252817  1
  C  C133  1  0.50000000  0.50104937  0.55473385  1
  C  C134  1  0.50000000  0.50087700  0.88932455  1
  C  C135  1  0.50000000  0.55713890  0.22357661  1
  C  C136  1  0.50000000  0.56161565  0.55607621  1
  C  C137  1  0.50000000  0.56113181  0.88790741  1
  C  C138  1  0.50000000  0.62225553  0.56021965  1
  C  C139  1  0.50000000  0.62198772  0.88517180  1
  C  C140  1  0.50000000  0.68153190  0.55698280  1
  C  C141  1  0.50000000  0.68200819  0.88755801  1
  C  C142  1  0.50000000  0.74066399  0.55512445  1
  C  C143  1  0.50000000  0.74128901  0.89077963  1
  C  C144  1  0.50000000  0.25919489  0.27657632  1
  C  C145  1  0.50000000  0.26069402  0.61068941  1
  C  C146  1  0.50000000  0.26041695  0.94238731  1
  C  C147  1  0.50000000  0.31836509  0.27785330  1
  C  C148  1  0.50000000  0.32007504  0.61144567  1
  C  C149  1  0.50000000  0.31977830  0.94405229  1
  C  C150  1  0.50000000  0.37834975  0.27778609  1
  C  C151  1  0.50000000  0.38036715  0.61124643  1
  C  C152  1  0.50000000  0.38003715  0.94428970  1
  C  C153  1  0.50000000  0.43800181  0.27770946  1
  C  C154  1  0.50000000  0.44057710  0.61090510  1
  C  C155  1  0.50000000  0.44033309  0.94442374  1
  C  C156  1  0.50000000  0.49751581  0.27746398  1
  C  C157  1  0.50000000  0.50088206  0.61070452  1
  C  C158  1  0.50000000  0.50106333  0.94528889  1
  C  C159  1  0.50000000  0.55715166  0.27630932  1
  C  C160  1  0.50000000  0.56112886  0.61208274  1
  C  C161  1  0.50000000  0.56165233  0.94388815  1
  C  C162  1  0.50000000  0.62199527  0.61484959  1
  C  C163  1  0.50000000  0.62221298  0.93979198  1
  C  C164  1  0.50000000  0.68201612  0.61252874  1
  C  C165  1  0.50000000  0.68150961  0.94311990  1
  C  C166  1  0.50000000  0.74132504  0.60937002  1
  C  C167  1  0.50000000  0.74061386  0.94501193  1
  H  H168  1  0.50000000  0.23649122  0.03551215  1
  H  H169  1  0.50000000  0.23597999  0.37125220  1
  H  H170  1  0.50000000  0.23752093  0.70365702  1
  H  H171  1  0.50000000  0.76505344  0.70338719  1
  H  H172  1  0.50000000  0.23592817  0.12845747  1
  H  H173  1  0.50000000  0.23645950  0.46430015  1
  H  H174  1  0.50000000  0.23754939  0.79654008  1
  H  H175  1  0.50000000  0.76504916  0.79675279  1
  H  H176  1  0.50000000  0.23576564  0.20335470  1
  H  H177  1  0.50000000  0.23688237  0.53800316  1
  H  H178  1  0.50000000  0.23735621  0.86896095  1
  H  H179  1  0.50000000  0.76358634  0.53347499  1
  H  H180  1  0.50000000  0.76494410  0.87150575  1
  H  H181  1  0.50000000  0.23571894  0.29637735  1
  H  H182  1  0.50000000  0.23730115  0.63072521  1
  H  H183  1  0.50000000  0.23691276  0.96211706  1
  H  H184  1  0.50000000  0.76491154  0.62887322  1
  H  H185  1  0.50000000  0.76360789  0.96644546  1
  H  H186  1  0.50000000  0.59699580  0.00616662  1
  H  H187  1  0.50000000  0.65027728  0.01049241  1
  H  H188  1  0.50000000  0.71025009  0.01345011  1
  H  H189  1  0.50000000  0.58204688  0.04888201  1
  H  H190  1  0.50000000  0.58003273  0.36545880  1
  H  H191  1  0.50000000  0.58003133  0.13451219  1
  H  H192  1  0.50000000  0.58194758  0.45135486  1
  H  H193  1  0.50000000  0.59706074  0.49379174  1
  H  H194  1  0.50000000  0.65033820  0.48955122  1
  H  H195  1  0.50000000  0.71028087  0.48674756  1
  H  H196  1  0.50000000  0.58048188  0.20356301  1
  H  H197  1  0.50000000  0.58051735  0.29620029  1
