# generated using pymatgen
data_H20C87
_symmetry_space_group_name_H-M   'P 1'
_cell_length_a   10.00000000
_cell_length_b   41.10890000
_cell_length_c   25.83304329
_cell_angle_alpha   90.00000000
_cell_angle_beta   90.00000000
_cell_angle_gamma   90.00000000
_symmetry_Int_Tables_number   1
_chemical_formula_structural   H20C87
_chemical_formula_sum   'H40 C174'
_cell_volume   10619.67993404
_cell_formula_units_Z   2
loop_
 _symmetry_equiv_pos_site_id
 _symmetry_equiv_pos_as_xyz
  1  'x, y, z'
loop_
 _atom_site_type_symbol
 _atom_site_label
 _atom_site_symmetry_multiplicity
 _atom_site_fract_x
 _atom_site_fract_y
 _atom_site_fract_z
 _atom_site_occupancy
  C  C0  1  0.50000000  0.28981876  0.30542703  1
  C  C1  1  0.50000000  0.28956764  0.63888214  1
  C  C2  1  0.50000000  0.28959310  0.97220615  1
  C  C3  1  0.50000000  0.34994308  0.30570581  1
  C  C4  1  0.50000000  0.34963250  0.63911875  1
  C  C5  1  0.50000000  0.34968225  0.97230557  1
  C  C6  1  0.50000000  0.41013705  0.30569041  1
  C  C7  1  0.50000000  0.40976871  0.63904714  1
  C  C8  1  0.50000000  0.40977466  0.97192490  1
  C  C9  1  0.50000000  0.46946602  0.30711570  1
  C  C10  1  0.50000000  0.46992440  0.63943552  1
  C  C11  1  0.50000000  0.46973215  0.97192643  1
  C  C12  1  0.50000000  0.52996312  0.63991759  1
  C  C13  1  0.50000000  0.53026393  0.96876843  1
  C  C14  1  0.50000000  0.59037227  0.63988962  1
  C  C15  1  0.50000000  0.59003482  0.96881286  1
  C  C16  1  0.50000000  0.65043761  0.30726890  1
  C  C17  1  0.50000000  0.65041516  0.63946098  1
  C  C18  1  0.50000000  0.65060438  0.97192095  1
  C  C19  1  0.50000000  0.70982891  0.30551071  1
  C  C20  1  0.50000000  0.71056453  0.63897366  1
  C  C21  1  0.50000000  0.71063160  0.97184919  1
  C  C22  1  0.50000000  0.28964322  0.02786174  1
  C  C23  1  0.50000000  0.28976686  0.36105603  1
  C  C24  1  0.50000000  0.28957227  0.69453774  1
  C  C25  1  0.50000000  0.34971682  0.02755468  1
  C  C26  1  0.50000000  0.34988655  0.36102598  1
  C  C27  1  0.50000000  0.34964350  0.69429744  1
  C  C28  1  0.50000000  0.40976087  0.02742013  1
  C  C29  1  0.50000000  0.41009108  0.36138483  1
  C  C30  1  0.50000000  0.40972819  0.69458143  1
  C  C31  1  0.50000000  0.46892528  0.02573248  1
  C  C32  1  0.50000000  0.46938563  0.36033188  1
  C  C33  1  0.50000000  0.46984992  0.69449761  1
  C  C34  1  0.50000000  0.52995193  0.69512538  1
  C  C35  1  0.50000000  0.59037084  0.69512515  1
  C  C36  1  0.50000000  0.65137770  0.02565128  1
  C  C37  1  0.50000000  0.65063760  0.36046168  1
  C  C38  1  0.50000000  0.65047231  0.69444057  1
  C  C39  1  0.50000000  0.71063389  0.02757074  1
  C  C40  1  0.50000000  0.70998149  0.36140225  1
  C  C41  1  0.50000000  0.71060788  0.69476626  1
  C  C42  1  0.50000000  0.26024788  0.05685106  1
  C  C43  1  0.50000000  0.26034193  0.38996220  1
  C  C44  1  0.50000000  0.26013375  0.72350564  1
  C  C45  1  0.50000000  0.31966146  0.05554129  1
  C  C46  1  0.50000000  0.31974481  0.38883070  1
  C  C47  1  0.50000000  0.31956504  0.72221655  1
  C  C48  1  0.50000000  0.37980291  0.05551971  1
  C  C49  1  0.50000000  0.37991344  0.38916575  1
  C  C50  1  0.50000000  0.37974203  0.72233157  1
  C  C51  1  0.50000000  0.43991245  0.05481912  1
  C  C52  1  0.50000000  0.44001447  0.38928164  1
  C  C53  1  0.50000000  0.43973196  0.72236344  1
  C  C54  1  0.50000000  0.49989710  0.72236305  1
  C  C55  1  0.50000000  0.56017178  0.72246424  1
  C  C56  1  0.50000000  0.62041487  0.72238112  1
  C  C57  1  0.50000000  0.68044111  0.05462653  1
  C  C58  1  0.50000000  0.68015675  0.38924385  1
  C  C59  1  0.50000000  0.68063870  0.72226715  1
  C  C60  1  0.50000000  0.73991576  0.05688689  1
  C  C61  1  0.50000000  0.73961594  0.39001351  1
  C  C62  1  0.50000000  0.73997013  0.72344786  1
  C  C63  1  0.50000000  0.26032965  0.10997805  1
  C  C64  1  0.50000000  0.26024899  0.44307816  1
  C  C65  1  0.50000000  0.26014320  0.77662741  1
  C  C66  1  0.50000000  0.31976456  0.11114285  1
  C  C67  1  0.50000000  0.31963348  0.44444417  1
  C  C68  1  0.50000000  0.31957077  0.77783327  1
  C  C69  1  0.50000000  0.37993692  0.11085250  1
  C  C70  1  0.50000000  0.37976985  0.44449817  1
  C  C71  1  0.50000000  0.37974403  0.77766514  1
  C  C72  1  0.50000000  0.44005348  0.11074674  1
  C  C73  1  0.50000000  0.43985461  0.44523075  1
  C  C74  1  0.50000000  0.43972996  0.77760351  1
  C  C75  1  0.50000000  0.49989446  0.77758126  1
  C  C76  1  0.50000000  0.56017166  0.77748550  1
  C  C77  1  0.50000000  0.62041588  0.77757953  1
  C  C78  1  0.50000000  0.68009040  0.11079257  1
  C  C79  1  0.50000000  0.68049757  0.44539964  1
  C  C80  1  0.50000000  0.68063675  0.77774985  1
  C  C81  1  0.50000000  0.73958948  0.11000214  1
  C  C82  1  0.50000000  0.73994369  0.44311771  1
  C  C83  1  0.50000000  0.73996584  0.77664608  1
  C  C84  1  0.50000000  0.28977725  0.13885608  1
  C  C85  1  0.50000000  0.28961591  0.47213637  1
  C  C86  1  0.50000000  0.28958759  0.80555803  1
  C  C87  1  0.50000000  0.34990510  0.13895785  1
  C  C88  1  0.50000000  0.34968471  0.47244884  1
  C  C89  1  0.50000000  0.34965126  0.80572969  1
  C  C90  1  0.50000000  0.41010059  0.13865873  1
  C  C91  1  0.50000000  0.40971007  0.47261448  1
  C  C92  1  0.50000000  0.40972849  0.80540231  1
  C  C93  1  0.50000000  0.46941159  0.13977959  1
  C  C94  1  0.50000000  0.46891414  0.47421702  1
  C  C95  1  0.50000000  0.46984875  0.80545447  1
  C  C96  1  0.50000000  0.52995034  0.80481474  1
  C  C97  1  0.50000000  0.59037357  0.80481800  1
  C  C98  1  0.50000000  0.65058892  0.13964547  1
  C  C99  1  0.50000000  0.65141552  0.47430984  1
  C  C100  1  0.50000000  0.65047009  0.80554682  1
  C  C101  1  0.50000000  0.70993104  0.13858360  1
  C  C102  1  0.50000000  0.71067632  0.47245447  1
  C  C103  1  0.50000000  0.71059807  0.80529055  1
  C  C104  1  0.50000000  0.28983602  0.19447891  1
  C  C105  1  0.50000000  0.28956960  0.52780588  1
  C  C106  1  0.50000000  0.28956741  0.86120592  1
  C  C107  1  0.50000000  0.34995776  0.19427315  1
  C  C108  1  0.50000000  0.34966253  0.52771263  1
  C  C109  1  0.50000000  0.34963367  0.86090059  1
  C  C110  1  0.50000000  0.41014342  0.19435970  1
  C  C111  1  0.50000000  0.40976121  0.52809327  1
  C  C112  1  0.50000000  0.40976360  0.86093800  1
  C  C113  1  0.50000000  0.46946968  0.19300245  1
  C  C114  1  0.50000000  0.46973232  0.52796262  1
  C  C115  1  0.50000000  0.46991525  0.86051837  1
  C  C116  1  0.50000000  0.53026192  0.53110563  1
  C  C117  1  0.50000000  0.52995981  0.86000946  1
  C  C118  1  0.50000000  0.59004369  0.53106009  1
  C  C119  1  0.50000000  0.59037564  0.86004010  1
  C  C120  1  0.50000000  0.65041817  0.19285266  1
  C  C121  1  0.50000000  0.65061461  0.52805401  1
  C  C122  1  0.50000000  0.65042532  0.86052638  1
  C  C123  1  0.50000000  0.70979496  0.19448128  1
  C  C124  1  0.50000000  0.71064463  0.52818503  1
  C  C125  1  0.50000000  0.71057130  0.86108664  1
  C  C126  1  0.50000000  0.26041028  0.22337415  1
  C  C127  1  0.50000000  0.26015432  0.55677764  1
  C  C128  1  0.50000000  0.26014155  0.89015655  1
  C  C129  1  0.50000000  0.31986139  0.22216401  1
  C  C130  1  0.50000000  0.31955815  0.55556905  1
  C  C131  1  0.50000000  0.31956021  0.88886808  1
  C  C132  1  0.50000000  0.38005662  0.22233267  1
  C  C133  1  0.50000000  0.37969382  0.55588465  1
  C  C134  1  0.50000000  0.37972267  0.88887165  1
  C  C135  1  0.50000000  0.44014991  0.22213578  1
  C  C136  1  0.50000000  0.43969210  0.55615695  1
  C  C137  1  0.50000000  0.43970142  0.88855714  1
  C  C138  1  0.50000000  0.50047367  0.55639903  1
  C  C139  1  0.50000000  0.50002970  0.88789555  1
  C  C140  1  0.50000000  0.56017506  0.55784939  1
  C  C141  1  0.50000000  0.56016746  0.88690206  1
  C  C142  1  0.50000000  0.61985230  0.55641340  1
  C  C143  1  0.50000000  0.62028580  0.88797765  1
  C  C144  1  0.50000000  0.67978858  0.22202831  1
  C  C145  1  0.50000000  0.68072368  0.55607202  1
  C  C146  1  0.50000000  0.68068256  0.88844126  1
  C  C147  1  0.50000000  0.73926750  0.22341330  1
  C  C148  1  0.50000000  0.74009213  0.55702594  1
  C  C149  1  0.50000000  0.74001489  0.88994099  1
  C  C150  1  0.50000000  0.26039971  0.27648972  1
  C  C151  1  0.50000000  0.26015835  0.60991217  1
  C  C152  1  0.50000000  0.26015113  0.94330021  1
  C  C153  1  0.50000000  0.31985293  0.27778408  1
  C  C154  1  0.50000000  0.31955488  0.61117250  1
  C  C155  1  0.50000000  0.31957546  0.94446120  1
  C  C156  1  0.50000000  0.38005372  0.27768152  1
  C  C157  1  0.50000000  0.37972220  0.61113601  1
  C  C158  1  0.50000000  0.37970742  0.94412499  1
  C  C159  1  0.50000000  0.44014798  0.27793457  1
  C  C160  1  0.50000000  0.43971044  0.61140469  1
  C  C161  1  0.50000000  0.43968371  0.94379965  1
  C  C162  1  0.50000000  0.50002983  0.61201990  1
  C  C163  1  0.50000000  0.50047543  0.94349715  1
  C  C164  1  0.50000000  0.56016843  0.61300219  1
  C  C165  1  0.50000000  0.56016775  0.94203072  1
  C  C166  1  0.50000000  0.62028274  0.61196507  1
  C  C167  1  0.50000000  0.61985631  0.94352225  1
  C  C168  1  0.50000000  0.67979916  0.27803054  1
  C  C169  1  0.50000000  0.68067789  0.61157455  1
  C  C170  1  0.50000000  0.68072116  0.94393583  1
  C  C171  1  0.50000000  0.73928773  0.27650048  1
  C  C172  1  0.50000000  0.73998906  0.61011603  1
  C  C173  1  0.50000000  0.74010416  0.94305485  1
  H  H174  1  0.50000000  0.23684091  0.03678439  1
  H  H175  1  0.50000000  0.23693565  0.36994268  1
  H  H176  1  0.50000000  0.23671719  0.70347270  1
  H  H177  1  0.50000000  0.76342277  0.03714227  1
  H  H178  1  0.50000000  0.76292722  0.36970330  1
  H  H179  1  0.50000000  0.76336568  0.70342510  1
  H  H180  1  0.50000000  0.23697148  0.13016449  1
  H  H181  1  0.50000000  0.23676949  0.46289044  1
  H  H182  1  0.50000000  0.23674700  0.79673174  1
  H  H183  1  0.50000000  0.76284144  0.13051617  1
  H  H184  1  0.50000000  0.76350335  0.46266071  1
  H  H185  1  0.50000000  0.76334696  0.79672467  1
  H  H186  1  0.50000000  0.23701734  0.20331622  1
  H  H187  1  0.50000000  0.23670104  0.53688244  1
  H  H188  1  0.50000000  0.23675393  0.87003919  1
  H  H189  1  0.50000000  0.76269612  0.20338077  1
  H  H190  1  0.50000000  0.76352102  0.53704405  1
  H  H191  1  0.50000000  0.76335629  0.86973398  1
  H  H192  1  0.50000000  0.23698675  0.29647312  1
  H  H193  1  0.50000000  0.23673104  0.62989190  1
  H  H194  1  0.50000000  0.23677102  0.96344350  1
  H  H195  1  0.50000000  0.76274170  0.29642756  1
  H  H196  1  0.50000000  0.76338712  0.63013062  1
  H  H197  1  0.50000000  0.76346597  0.96328383  1
  H  H198  1  0.50000000  0.49290271  0.28720501  1
  H  H199  1  0.50000000  0.53141733  0.01104062  1
  H  H200  1  0.50000000  0.58870485  0.01107225  1
  H  H201  1  0.50000000  0.62691304  0.28750750  1
  H  H202  1  0.50000000  0.49196548  0.04651732  1
  H  H203  1  0.50000000  0.49278531  0.38038932  1
  H  H204  1  0.50000000  0.62841626  0.04663274  1
  H  H205  1  0.50000000  0.62720593  0.38052386  1
  H  H206  1  0.50000000  0.49285421  0.11984192  1
  H  H207  1  0.50000000  0.49188282  0.45319133  1
  H  H208  1  0.50000000  0.62711725  0.11970042  1
  H  H209  1  0.50000000  0.62850815  0.45314861  1
  H  H210  1  0.50000000  0.49287110  0.21300351  1
  H  H211  1  0.50000000  0.53138733  0.48879936  1
  H  H212  1  0.50000000  0.58872744  0.48875353  1
  H  H213  1  0.50000000  0.62693387  0.21275327  1
