# generated using pymatgen
data_H7C29
_symmetry_space_group_name_H-M   'P 1'
_cell_length_a   10.00000000
_cell_length_b   41.10890000
_cell_length_c   26.00890460
_cell_angle_alpha   90.00000000
_cell_angle_beta   90.00000000
_cell_angle_gamma   90.00000000
_symmetry_Int_Tables_number   1
_chemical_formula_structural   H7C29
_chemical_formula_sum   'H42 C174'
_cell_volume   10691.97458485
_cell_formula_units_Z   6
loop_
 _symmetry_equiv_pos_site_id
 _symmetry_equiv_pos_as_xyz
  1  'x, y, z'
loop_
 _atom_site_type_symbol
 _atom_site_label
 _atom_site_symmetry_multiplicity
 _atom_site_fract_x
 _atom_site_fract_y
 _atom_site_fract_z
 _atom_site_occupancy
  C  C0  1  0.50000000  0.28506580  0.30564737  1
  C  C1  1  0.50000000  0.28843372  0.63922536  1
  C  C2  1  0.50000000  0.28748749  0.97082892  1
  C  C3  1  0.50000000  0.34505208  0.30574610  1
  C  C4  1  0.50000000  0.34854399  0.63894056  1
  C  C5  1  0.50000000  0.34766469  0.97191946  1
  C  C6  1  0.50000000  0.40457538  0.30561199  1
  C  C7  1  0.50000000  0.40852657  0.63840730  1
  C  C8  1  0.50000000  0.40778438  0.97248305  1
  C  C9  1  0.50000000  0.46424311  0.30395581  1
  C  C10  1  0.50000000  0.46846334  0.63890077  1
  C  C11  1  0.50000000  0.46854131  0.97315948  1
  C  C12  1  0.50000000  0.52866878  0.64051168  1
  C  C13  1  0.50000000  0.53006494  0.96526012  1
  C  C14  1  0.50000000  0.58943152  0.64209860  1
  C  C15  1  0.50000000  0.58914412  0.96625846  1
  C  C16  1  0.50000000  0.64979811  0.64034270  1
  C  C17  1  0.50000000  0.64866665  0.96739965  1
  C  C18  1  0.50000000  0.72986864  0.30533889  1
  C  C19  1  0.50000000  0.70967682  0.63984089  1
  C  C20  1  0.50000000  0.71068349  0.97201594  1
  C  C21  1  0.50000000  0.28670768  0.02674604  1
  C  C22  1  0.50000000  0.28545931  0.36190004  1
  C  C23  1  0.50000000  0.28869369  0.69488621  1
  C  C24  1  0.50000000  0.34679182  0.02719073  1
  C  C25  1  0.50000000  0.34548211  0.36110074  1
  C  C26  1  0.50000000  0.34871440  0.69423577  1
  C  C27  1  0.50000000  0.40669870  0.02779381  1
  C  C28  1  0.50000000  0.40500334  0.36076455  1
  C  C29  1  0.50000000  0.40852386  0.69404333  1
  C  C30  1  0.50000000  0.46706187  0.02930817  1
  C  C31  1  0.50000000  0.46430375  0.35889347  1
  C  C32  1  0.50000000  0.46840032  0.69446907  1
  C  C33  1  0.50000000  0.52858473  0.69544676  1
  C  C34  1  0.50000000  0.58928980  0.69637506  1
  C  C35  1  0.50000000  0.64966635  0.69532210  1
  C  C36  1  0.50000000  0.71568079  0.02834092  1
  C  C37  1  0.50000000  0.72708320  0.36157117  1
  C  C38  1  0.50000000  0.70965472  0.69544683  1
  C  C39  1  0.50000000  0.25722591  0.05499665  1
  C  C40  1  0.50000000  0.25660936  0.39157306  1
  C  C41  1  0.50000000  0.25944546  0.72332333  1
  C  C42  1  0.50000000  0.31634972  0.05487261  1
  C  C43  1  0.50000000  0.31560047  0.38930740  1
  C  C44  1  0.50000000  0.31865656  0.72218681  1
  C  C45  1  0.50000000  0.37641185  0.05524499  1
  C  C46  1  0.50000000  0.37548798  0.38884546  1
  C  C47  1  0.50000000  0.37864328  0.72198061  1
  C  C48  1  0.50000000  0.43646397  0.05613063  1
  C  C49  1  0.50000000  0.43528000  0.38811249  1
  C  C50  1  0.50000000  0.43851403  0.72212780  1
  C  C51  1  0.50000000  0.49465208  0.06201410  1
  C  C52  1  0.50000000  0.49373997  0.38543405  1
  C  C53  1  0.50000000  0.49835713  0.72240715  1
  C  C54  1  0.50000000  0.55875993  0.72266477  1
  C  C55  1  0.50000000  0.61969490  0.72267870  1
  C  C56  1  0.50000000  0.69029317  0.06469021  1
  C  C57  1  0.50000000  0.69591150  0.38350156  1
  C  C58  1  0.50000000  0.67973344  0.72275262  1
  C  C59  1  0.50000000  0.74732464  0.05079392  1
  C  C60  1  0.50000000  0.75309493  0.39683183  1
  C  C61  1  0.50000000  0.73887795  0.72372841  1
  C  C62  1  0.50000000  0.25662466  0.10820094  1
  C  C63  1  0.50000000  0.25722610  0.44478809  1
  C  C64  1  0.50000000  0.25942225  0.77629011  1
  C  C65  1  0.50000000  0.31560702  0.11042787  1
  C  C66  1  0.50000000  0.31635662  0.44487723  1
  C  C67  1  0.50000000  0.31862822  0.77755607  1
  C  C68  1  0.50000000  0.37548640  0.11091460  1
  C  C69  1  0.50000000  0.37642629  0.44452019  1
  C  C70  1  0.50000000  0.37863731  0.77780464  1
  C  C71  1  0.50000000  0.43526392  0.11167698  1
  C  C72  1  0.50000000  0.43648398  0.44366098  1
  C  C73  1  0.50000000  0.43850562  0.77768089  1
  C  C74  1  0.50000000  0.49371483  0.11438314  1
  C  C75  1  0.50000000  0.49468883  0.43781489  1
  C  C76  1  0.50000000  0.49833615  0.77742819  1
  C  C77  1  0.50000000  0.55873880  0.77733233  1
  C  C78  1  0.50000000  0.61967299  0.77745464  1
  C  C79  1  0.50000000  0.69547321  0.11699893  1
  C  C80  1  0.50000000  0.69065646  0.43576692  1
  C  C81  1  0.50000000  0.67968917  0.77759223  1
  C  C82  1  0.50000000  0.75263614  0.10371353  1
  C  C83  1  0.50000000  0.74767883  0.44974566  1
  C  C84  1  0.50000000  0.73883122  0.77681668  1
  C  C85  1  0.50000000  0.28547777  0.13784878  1
  C  C86  1  0.50000000  0.28671840  0.47301527  1
  C  C87  1  0.50000000  0.28864996  0.80484646  1
  C  C88  1  0.50000000  0.34548544  0.13864296  1
  C  C89  1  0.50000000  0.34680851  0.47254746  1
  C  C90  1  0.50000000  0.34868604  0.80550662  1
  C  C91  1  0.50000000  0.40499697  0.13900727  1
  C  C92  1  0.50000000  0.40671926  0.47198040  1
  C  C93  1  0.50000000  0.40850458  0.80576660  1
  C  C94  1  0.50000000  0.46428051  0.14090054  1
  C  C95  1  0.50000000  0.46708742  0.47049060  1
  C  C96  1  0.50000000  0.46836953  0.80535053  1
  C  C97  1  0.50000000  0.52854474  0.80446637  1
  C  C98  1  0.50000000  0.58924388  0.80367762  1
  C  C99  1  0.50000000  0.64959819  0.80494001  1
  C  C100  1  0.50000000  0.72662993  0.13894955  1
  C  C101  1  0.50000000  0.71601373  0.47214465  1
  C  C102  1  0.50000000  0.70957080  0.80499302  1
  C  C103  1  0.50000000  0.28508198  0.19408965  1
  C  C104  1  0.50000000  0.28750835  0.52892849  1
  C  C105  1  0.50000000  0.28840925  0.86054079  1
  C  C106  1  0.50000000  0.34505166  0.19400890  1
  C  C107  1  0.50000000  0.34768241  0.52781951  1
  C  C108  1  0.50000000  0.34851825  0.86080518  1
  C  C109  1  0.50000000  0.40457295  0.19416363  1
  C  C110  1  0.50000000  0.40783330  0.52726157  1
  C  C111  1  0.50000000  0.40850162  0.86137470  1
  C  C112  1  0.50000000  0.46423384  0.19582263  1
  C  C113  1  0.50000000  0.46861562  0.52664707  1
  C  C114  1  0.50000000  0.46840989  0.86091271  1
  C  C115  1  0.50000000  0.53020860  0.53464999  1
  C  C116  1  0.50000000  0.52859142  0.85939805  1
  C  C117  1  0.50000000  0.58934954  0.53384793  1
  C  C118  1  0.50000000  0.58933984  0.85794719  1
  C  C119  1  0.50000000  0.64890451  0.53285710  1
  C  C120  1  0.50000000  0.64965405  0.85992260  1
  C  C121  1  0.50000000  0.72957508  0.19514055  1
  C  C122  1  0.50000000  0.71093122  0.52843875  1
  C  C123  1  0.50000000  0.70952520  0.86059659  1
  C  C124  1  0.50000000  0.25592201  0.22319966  1
  C  C125  1  0.50000000  0.25855741  0.55813066  1
  C  C126  1  0.50000000  0.25898202  0.88861446  1
  C  C127  1  0.50000000  0.31490661  0.22202252  1
  C  C128  1  0.50000000  0.31772864  0.55602475  1
  C  C129  1  0.50000000  0.31817955  0.88838032  1
  C  C130  1  0.50000000  0.37477587  0.22198062  1
  C  C131  1  0.50000000  0.37794415  0.55526362  1
  C  C132  1  0.50000000  0.37831699  0.88884274  1
  C  C133  1  0.50000000  0.43433536  0.22248304  1
  C  C134  1  0.50000000  0.43864002  0.55457745  1
  C  C135  1  0.50000000  0.43851935  0.88930221  1
  C  C136  1  0.50000000  0.49374484  0.22355244  1
  C  C137  1  0.50000000  0.49909847  0.55629156  1
  C  C138  1  0.50000000  0.49848905  0.88782400  1
  C  C139  1  0.50000000  0.55980874  0.56102047  1
  C  C140  1  0.50000000  0.55921552  0.88450841  1
  C  C141  1  0.50000000  0.61932765  0.55982973  1
  C  C142  1  0.50000000  0.61928557  0.88541450  1
  C  C143  1  0.50000000  0.70066698  0.22405801  1
  C  C144  1  0.50000000  0.67988505  0.55594475  1
  C  C145  1  0.50000000  0.67975528  0.88829951  1
  C  C146  1  0.50000000  0.75896993  0.22311604  1
  C  C147  1  0.50000000  0.73915602  0.55888594  1
  C  C148  1  0.50000000  0.73878635  0.88851677  1
  C  C149  1  0.50000000  0.25590351  0.27652395  1
  C  C150  1  0.50000000  0.25900908  0.61114916  1
  C  C151  1  0.50000000  0.25853075  0.94163455  1
  C  C152  1  0.50000000  0.31490384  0.27773020  1
  C  C153  1  0.50000000  0.31820553  0.61136226  1
  C  C154  1  0.50000000  0.31770530  0.94372011  1
  C  C155  1  0.50000000  0.37478152  0.27778026  1
  C  C156  1  0.50000000  0.37833004  0.61089507  1
  C  C157  1  0.50000000  0.37791817  0.94446820  1
  C  C158  1  0.50000000  0.43433832  0.27729456  1
  C  C159  1  0.50000000  0.43856328  0.61050675  1
  C  C160  1  0.50000000  0.43858039  0.94520866  1
  C  C161  1  0.50000000  0.49375011  0.27620026  1
  C  C162  1  0.50000000  0.49856410  0.61203461  1
  C  C163  1  0.50000000  0.49899766  0.94354387  1
  C  C164  1  0.50000000  0.55931384  0.61546270  1
  C  C165  1  0.50000000  0.55966713  0.93895454  1
  C  C166  1  0.50000000  0.61944175  0.61476045  1
  C  C167  1  0.50000000  0.61912691  0.94034709  1
  C  C168  1  0.50000000  0.70082072  0.27676248  1
  C  C169  1  0.50000000  0.67992832  0.61205334  1
  C  C170  1  0.50000000  0.67966937  0.94440979  1
  C  C171  1  0.50000000  0.75912341  0.27698207  1
  C  C172  1  0.50000000  0.73897035  0.61198685  1
  C  C173  1  0.50000000  0.73894893  0.94163792  1
  H  H174  1  0.50000000  0.23387084  0.03486424  1
  H  H175  1  0.50000000  0.23287662  0.37257925  1
  H  H176  1  0.50000000  0.23609040  0.70335741  1
  H  H177  1  0.50000000  0.76912155  0.02674352  1
  H  H178  1  0.50000000  0.77830320  0.38310575  1
  H  H179  1  0.50000000  0.76230812  0.70388879  1
  H  H180  1  0.50000000  0.23290315  0.12721330  1
  H  H181  1  0.50000000  0.23388748  0.46497831  1
  H  H182  1  0.50000000  0.23605534  0.79620924  1
  H  H183  1  0.50000000  0.77777941  0.11761551  1
  H  H184  1  0.50000000  0.76944205  0.47386052  1
  H  H185  1  0.50000000  0.76223062  0.79676941  1
  H  H186  1  0.50000000  0.23244820  0.20340476  1
  H  H187  1  0.50000000  0.23496318  0.53882019  1
  H  H188  1  0.50000000  0.23572679  0.86834942  1
  H  H189  1  0.50000000  0.78229243  0.20266405  1
  H  H190  1  0.50000000  0.76299236  0.54044941  1
  H  H191  1  0.50000000  0.76222332  0.86874514  1
  H  H192  1  0.50000000  0.23240842  0.29627574  1
  H  H193  1  0.50000000  0.23575452  0.63140814  1
  H  H194  1  0.50000000  0.23493231  0.96094007  1
  H  H195  1  0.50000000  0.78256760  0.29708370  1
  H  H196  1  0.50000000  0.76241611  0.63173015  1
  H  H197  1  0.50000000  0.76278002  0.96008306  1
  H  H198  1  0.50000000  0.53441796  0.00561780  1
  H  H199  1  0.50000000  0.58857423  0.00849155  1
  H  H200  1  0.50000000  0.64530036  0.00853006  1
  H  H201  1  0.50000000  0.51915273  0.04869110  1
  H  H202  1  0.50000000  0.51696583  0.36514689  1
  H  H203  1  0.50000000  0.66498808  0.05390799  1
  H  H204  1  0.50000000  0.67411098  0.35971145  1
  H  H205  1  0.50000000  0.51695247  0.13463005  1
  H  H206  1  0.50000000  0.51917658  0.45123784  1
  H  H207  1  0.50000000  0.67366687  0.14077673  1
  H  H208  1  0.50000000  0.66533719  0.44647984  1
  H  H209  1  0.50000000  0.53463421  0.49430466  1
  H  H210  1  0.50000000  0.58890182  0.49160867  1
  H  H211  1  0.50000000  0.64558433  0.49171714  1
  H  H212  1  0.50000000  0.51705763  0.20353744  1
  H  H213  1  0.50000000  0.67690628  0.20560727  1
  H  H214  1  0.50000000  0.51707865  0.29618536  1
  H  H215  1  0.50000000  0.67717216  0.29555957  1
