# generated using pymatgen
data_H7C29
_symmetry_space_group_name_H-M   'P 1'
_cell_length_a   10.00000000
_cell_length_b   41.10890000
_cell_length_c   26.01580420
_cell_angle_alpha   90.00000000
_cell_angle_beta   90.00000000
_cell_angle_gamma   90.00000000
_symmetry_Int_Tables_number   1
_chemical_formula_structural   H7C29
_chemical_formula_sum   'H42 C174'
_cell_volume   10694.81093087
_cell_formula_units_Z   6
loop_
 _symmetry_equiv_pos_site_id
 _symmetry_equiv_pos_as_xyz
  1  'x, y, z'
loop_
 _atom_site_type_symbol
 _atom_site_label
 _atom_site_symmetry_multiplicity
 _atom_site_fract_x
 _atom_site_fract_y
 _atom_site_fract_z
 _atom_site_occupancy
  C  C0  1  0.50000000  0.28479037  0.30594452  1
  C  C1  1  0.50000000  0.28928865  0.63909200  1
  C  C2  1  0.50000000  0.28823634  0.97088116  1
  C  C3  1  0.50000000  0.34462201  0.30587691  1
  C  C4  1  0.50000000  0.34947356  0.63860451  1
  C  C5  1  0.50000000  0.34859951  0.97254134  1
  C  C6  1  0.50000000  0.40426782  0.30413364  1
  C  C7  1  0.50000000  0.40919406  0.63899866  1
  C  C8  1  0.50000000  0.40921207  0.97346350  1
  C  C9  1  0.50000000  0.46920861  0.64067403  1
  C  C10  1  0.50000000  0.47094275  0.96536835  1
  C  C11  1  0.50000000  0.52998300  0.64266366  1
  C  C12  1  0.50000000  0.53008237  0.96524027  1
  C  C13  1  0.50000000  0.59064820  0.64064196  1
  C  C14  1  0.50000000  0.58922408  0.96562061  1
  C  C15  1  0.50000000  0.65790452  0.30431719  1
  C  C16  1  0.50000000  0.65047094  0.63923962  1
  C  C17  1  0.50000000  0.65085640  0.97375123  1
  C  C18  1  0.50000000  0.71782996  0.30636552  1
  C  C19  1  0.50000000  0.71033446  0.63899444  1
  C  C20  1  0.50000000  0.71152412  0.97122853  1
  C  C21  1  0.50000000  0.28718473  0.02665088  1
  C  C22  1  0.50000000  0.28532284  0.36207678  1
  C  C23  1  0.50000000  0.28935237  0.69485645  1
  C  C24  1  0.50000000  0.34726894  0.02757595  1
  C  C25  1  0.50000000  0.34517857  0.36087207  1
  C  C26  1  0.50000000  0.34942314  0.69401371  1
  C  C27  1  0.50000000  0.40758664  0.02944594  1
  C  C28  1  0.50000000  0.40442451  0.35894330  1
  C  C29  1  0.50000000  0.40914012  0.69438224  1
  C  C30  1  0.50000000  0.46915474  0.69556407  1
  C  C31  1  0.50000000  0.52996258  0.69682583  1
  C  C32  1  0.50000000  0.59066070  0.69545798  1
  C  C33  1  0.50000000  0.65301111  0.02929671  1
  C  C34  1  0.50000000  0.65734828  0.35877943  1
  C  C35  1  0.50000000  0.65053666  0.69439841  1
  C  C36  1  0.50000000  0.71334925  0.02657547  1
  C  C37  1  0.50000000  0.71692778  0.36218686  1
  C  C38  1  0.50000000  0.71045340  0.69471131  1
  C  C39  1  0.50000000  0.25749815  0.05466814  1
  C  C40  1  0.50000000  0.25655258  0.39215853  1
  C  C41  1  0.50000000  0.26012211  0.72333428  1
  C  C42  1  0.50000000  0.31665687  0.05499967  1
  C  C43  1  0.50000000  0.31551983  0.38936014  1
  C  C44  1  0.50000000  0.31937807  0.72213396  1
  C  C45  1  0.50000000  0.37687266  0.05609715  1
  C  C46  1  0.50000000  0.37544563  0.38820947  1
  C  C47  1  0.50000000  0.37919469  0.72204088  1
  C  C48  1  0.50000000  0.43524052  0.06240250  1
  C  C49  1  0.50000000  0.43402085  0.38545191  1
  C  C50  1  0.50000000  0.43907708  0.72248554  1
  C  C51  1  0.50000000  0.49941223  0.72282268  1
  C  C52  1  0.50000000  0.56041957  0.72280818  1
  C  C53  1  0.50000000  0.62562519  0.06301812  1
  C  C54  1  0.50000000  0.62744292  0.38492805  1
  C  C55  1  0.50000000  0.62070100  0.72244109  1
  C  C56  1  0.50000000  0.68412875  0.05570938  1
  C  C57  1  0.50000000  0.68628669  0.38871741  1
  C  C58  1  0.50000000  0.68056040  0.72229645  1
  C  C59  1  0.50000000  0.74349034  0.05383153  1
  C  C60  1  0.50000000  0.74535384  0.39331566  1
  C  C61  1  0.50000000  0.73970456  0.72343667  1
  C  C62  1  0.50000000  0.25653883  0.10775269  1
  C  C63  1  0.50000000  0.25749286  0.44522533  1
  C  C64  1  0.50000000  0.26012452  0.77640965  1
  C  C65  1  0.50000000  0.31549961  0.11059474  1
  C  C66  1  0.50000000  0.31664731  0.44494425  1
  C  C67  1  0.50000000  0.31937922  0.77763740  1
  C  C68  1  0.50000000  0.37544275  0.11179990  1
  C  C69  1  0.50000000  0.37684997  0.44389225  1
  C  C70  1  0.50000000  0.37919018  0.77780571  1
  C  C71  1  0.50000000  0.43401137  0.11464824  1
  C  C72  1  0.50000000  0.43519521  0.43768422  1
  C  C73  1  0.50000000  0.43905139  0.77754062  1
  C  C74  1  0.50000000  0.49940891  0.77719320  1
  C  C75  1  0.50000000  0.56042408  0.77720389  1
  C  C76  1  0.50000000  0.62743591  0.11518028  1
  C  C77  1  0.50000000  0.62566140  0.43709359  1
  C  C78  1  0.50000000  0.62070302  0.77753973  1
  C  C79  1  0.50000000  0.68625966  0.11143127  1
  C  C80  1  0.50000000  0.68417443  0.44441794  1
  C  C81  1  0.50000000  0.68056607  0.77770138  1
  C  C82  1  0.50000000  0.74532431  0.10679012  1
  C  C83  1  0.50000000  0.74353584  0.44626032  1
  C  C84  1  0.50000000  0.73971011  0.77651994  1
  C  C85  1  0.50000000  0.28530038  0.13787442  1
  C  C86  1  0.50000000  0.28716719  0.47325642  1
  C  C87  1  0.50000000  0.28935943  0.80492165  1
  C  C88  1  0.50000000  0.34516220  0.13910632  1
  C  C89  1  0.50000000  0.34725368  0.47238328  1
  C  C90  1  0.50000000  0.34941293  0.80579709  1
  C  C91  1  0.50000000  0.40440499  0.14111607  1
  C  C92  1  0.50000000  0.40754055  0.47056939  1
  C  C93  1  0.50000000  0.40910531  0.80554686  1
  C  C94  1  0.50000000  0.46914242  0.80444809  1
  C  C95  1  0.50000000  0.52996174  0.80320099  1
  C  C96  1  0.50000000  0.59066947  0.80452852  1
  C  C97  1  0.50000000  0.65732458  0.14138013  1
  C  C98  1  0.50000000  0.65305172  0.47078394  1
  C  C99  1  0.50000000  0.65054150  0.80558795  1
  C  C100  1  0.50000000  0.71690649  0.13795343  1
  C  C101  1  0.50000000  0.71339616  0.47351348  1
  C  C102  1  0.50000000  0.71046321  0.80526529  1
  C  C103  1  0.50000000  0.28478668  0.19401567  1
  C  C104  1  0.50000000  0.28824761  0.52896246  1
  C  C105  1  0.50000000  0.28930583  0.86069965  1
  C  C106  1  0.50000000  0.34462696  0.19412861  1
  C  C107  1  0.50000000  0.34860351  0.52739444  1
  C  C108  1  0.50000000  0.34948505  0.86125634  1
  C  C109  1  0.50000000  0.40426573  0.19592332  1
  C  C110  1  0.50000000  0.40920931  0.52652845  1
  C  C111  1  0.50000000  0.40920001  0.86089858  1
  C  C112  1  0.50000000  0.47097094  0.53462861  1
  C  C113  1  0.50000000  0.46920860  0.85932748  1
  C  C114  1  0.50000000  0.53008350  0.53482704  1
  C  C115  1  0.50000000  0.52997820  0.85737792  1
  C  C116  1  0.50000000  0.58921016  0.53440088  1
  C  C117  1  0.50000000  0.59065598  0.85935550  1
  C  C118  1  0.50000000  0.65788884  0.19585927  1
  C  C119  1  0.50000000  0.65086520  0.52629505  1
  C  C120  1  0.50000000  0.65047290  0.86075998  1
  C  C121  1  0.50000000  0.71782867  0.19378853  1
  C  C122  1  0.50000000  0.71154101  0.52881882  1
  C  C123  1  0.50000000  0.71032862  0.86101624  1
  C  C124  1  0.50000000  0.25557097  0.22335780  1
  C  C125  1  0.50000000  0.25928406  0.55822731  1
  C  C126  1  0.50000000  0.25978904  0.88863442  1
  C  C127  1  0.50000000  0.31455083  0.22208913  1
  C  C128  1  0.50000000  0.31861157  0.55582547  1
  C  C129  1  0.50000000  0.31903823  0.88863606  1
  C  C130  1  0.50000000  0.37432397  0.22255354  1
  C  C131  1  0.50000000  0.37935668  0.55453812  1
  C  C132  1  0.50000000  0.37927849  0.88924432  1
  C  C133  1  0.50000000  0.43385555  0.22377206  1
  C  C134  1  0.50000000  0.43992369  0.55613570  1
  C  C135  1  0.50000000  0.43934975  0.88799802  1
  C  C136  1  0.50000000  0.50042484  0.56151909  1
  C  C137  1  0.50000000  0.49996980  0.88421843  1
  C  C138  1  0.50000000  0.55960547  0.56133510  1
  C  C139  1  0.50000000  0.55994127  0.88431826  1
  C  C140  1  0.50000000  0.62830154  0.22394747  1
  C  C141  1  0.50000000  0.62010837  0.55594071  1
  C  C142  1  0.50000000  0.62060722  0.88799642  1
  C  C143  1  0.50000000  0.68814825  0.22247108  1
  C  C144  1  0.50000000  0.68073089  0.55514919  1
  C  C145  1  0.50000000  0.68065548  0.88900860  1
  C  C146  1  0.50000000  0.74703337  0.22343973  1
  C  C147  1  0.50000000  0.74048859  0.55851790  1
  C  C148  1  0.50000000  0.74002529  0.88882874  1
  C  C149  1  0.50000000  0.25557283  0.27660614  1
  C  C150  1  0.50000000  0.25977270  0.61112833  1
  C  C151  1  0.50000000  0.25928918  0.94152932  1
  C  C152  1  0.50000000  0.31455123  0.27788675  1
  C  C153  1  0.50000000  0.31902799  0.61120934  1
  C  C154  1  0.50000000  0.31861803  0.94404664  1
  C  C155  1  0.50000000  0.37432176  0.27750190  1
  C  C156  1  0.50000000  0.37926495  0.61069253  1
  C  C157  1  0.50000000  0.37935233  0.94542636  1
  C  C158  1  0.50000000  0.43384705  0.27626992  1
  C  C159  1  0.50000000  0.43935461  0.61195270  1
  C  C160  1  0.50000000  0.43991331  0.94382654  1
  C  C161  1  0.50000000  0.49997413  0.61581646  1
  C  C162  1  0.50000000  0.50041833  0.93852863  1
  C  C163  1  0.50000000  0.55993264  0.61571532  1
  C  C164  1  0.50000000  0.55960863  0.93870809  1
  C  C165  1  0.50000000  0.62830577  0.27627854  1
  C  C166  1  0.50000000  0.62060388  0.61199927  1
  C  C167  1  0.50000000  0.62011172  0.94405604  1
  C  C168  1  0.50000000  0.68815103  0.27768892  1
  C  C169  1  0.50000000  0.68065767  0.61100071  1
  C  C170  1  0.50000000  0.68072410  0.94487954  1
  C  C171  1  0.50000000  0.74703248  0.27672925  1
  C  C172  1  0.50000000  0.74003462  0.61118438  1
  C  C173  1  0.50000000  0.74047882  0.94150327  1
  H  H174  1  0.50000000  0.23431640  0.03408544  1
  H  H175  1  0.50000000  0.23270885  0.37352261  1
  H  H176  1  0.50000000  0.23666130  0.70352677  1
  H  H177  1  0.50000000  0.76633826  0.03232624  1
  H  H178  1  0.50000000  0.76947299  0.37545135  1
  H  H179  1  0.50000000  0.76322710  0.70382457  1
  H  H180  1  0.50000000  0.23269621  0.12640485  1
  H  H181  1  0.50000000  0.23429206  0.46573656  1
  H  H182  1  0.50000000  0.23665346  0.79614390  1
  H  H183  1  0.50000000  0.76943057  0.12471396  1
  H  H184  1  0.50000000  0.76642279  0.46764992  1
  H  H185  1  0.50000000  0.76322970  0.79613654  1
  H  H186  1  0.50000000  0.23207761  0.20359024  1
  H  H187  1  0.50000000  0.23567950  0.53896584  1
  H  H188  1  0.50000000  0.23650566  0.86841054  1
  H  H189  1  0.50000000  0.77054582  0.20371433  1
  H  H190  1  0.50000000  0.76408352  0.53930506  1
  H  H191  1  0.50000000  0.76328073  0.86854801  1
  H  H192  1  0.50000000  0.23207856  0.29637310  1
  H  H193  1  0.50000000  0.23647523  0.63132690  1
  H  H194  1  0.50000000  0.23565093  0.96067880  1
  H  H195  1  0.50000000  0.77052990  0.29650142  1
  H  H196  1  0.50000000  0.76330768  0.63144888  1
  H  H197  1  0.50000000  0.76410040  0.96063062  1
  H  H198  1  0.50000000  0.47564128  0.00570740  1
  H  H199  1  0.50000000  0.53009737  0.00741392  1
  H  H200  1  0.50000000  0.58479190  0.00611007  1
  H  H201  1  0.50000000  0.45982215  0.04913376  1
  H  H202  1  0.50000000  0.45713050  0.36488840  1
  H  H203  1  0.50000000  0.60091476  0.05008531  1
  H  H204  1  0.50000000  0.60448793  0.36390864  1
  H  H205  1  0.50000000  0.45707696  0.13535247  1
  H  H206  1  0.50000000  0.45970880  0.45118105  1
  H  H207  1  0.50000000  0.60447890  0.13619995  1
  H  H208  1  0.50000000  0.60097796  0.45012524  1
  H  H209  1  0.50000000  0.47578330  0.49430197  1
  H  H210  1  0.50000000  0.53008624  0.49266813  1
  H  H211  1  0.50000000  0.58472663  0.49392010  1
  H  H212  1  0.50000000  0.45720092  0.20391049  1
  H  H213  1  0.50000000  0.60488969  0.20424701  1
  H  H214  1  0.50000000  0.45717713  0.29620675  1
  H  H215  1  0.50000000  0.60492008  0.29606553  1
