# generated using pymatgen
data_H19C78
_symmetry_space_group_name_H-M   'P 1'
_cell_length_a   20.00000000
_cell_length_b   37.22700000
_cell_length_c   25.91232084
_cell_angle_alpha   90.00000000
_cell_angle_beta   90.00000000
_cell_angle_gamma   90.00000000
_symmetry_Int_Tables_number   1
_chemical_formula_structural   H19C78
_chemical_formula_sum   'H38 C156'
_cell_volume   19292.75936143
_cell_formula_units_Z   2
loop_
 _symmetry_equiv_pos_site_id
 _symmetry_equiv_pos_as_xyz
  1  'x, y, z'
loop_
 _atom_site_type_symbol
 _atom_site_label
 _atom_site_symmetry_multiplicity
 _atom_site_fract_x
 _atom_site_fract_y
 _atom_site_fract_z
 _atom_site_occupancy
  C  C0  1  0.50000000  0.31588010  0.22204307  1
  C  C1  1  0.50000000  0.31495370  0.55508891  1
  C  C2  1  0.50000000  0.31476548  0.88884200  1
  C  C3  1  0.50000000  0.38227688  0.22233539  1
  C  C4  1  0.50000000  0.38128675  0.55567584  1
  C  C5  1  0.50000000  0.38112553  0.88897805  1
  C  C6  1  0.50000000  0.44833972  0.22227240  1
  C  C7  1  0.50000000  0.44726730  0.55591230  1
  C  C8  1  0.50000000  0.44715613  0.88872470  1
  C  C9  1  0.50000000  0.51475851  0.22184015  1
  C  C10  1  0.50000000  0.51348187  0.55637041  1
  C  C11  1  0.50000000  0.51337325  0.88805062  1
  C  C12  1  0.50000000  0.58026000  0.55766721  1
  C  C13  1  0.50000000  0.57981294  0.88729844  1
  C  C14  1  0.50000000  0.67092825  0.22360500  1
  C  C15  1  0.50000000  0.64711297  0.55585388  1
  C  C16  1  0.50000000  0.64662003  0.88833480  1
  C  C17  1  0.50000000  0.73536717  0.22296668  1
  C  C18  1  0.50000000  0.71223826  0.55894461  1
  C  C19  1  0.50000000  0.71179323  0.88777475  1
  C  C20  1  0.50000000  0.31586994  0.27798736  1
  C  C21  1  0.50000000  0.31477062  0.61113046  1
  C  C22  1  0.50000000  0.31492862  0.94489455  1
  C  C23  1  0.50000000  0.38227015  0.27766506  1
  C  C24  1  0.50000000  0.38112226  0.61102958  1
  C  C25  1  0.50000000  0.38127641  0.94431954  1
  C  C26  1  0.50000000  0.44833457  0.27774312  1
  C  C27  1  0.50000000  0.44715438  0.61124190  1
  C  C28  1  0.50000000  0.44725956  0.94404486  1
  C  C29  1  0.50000000  0.51475651  0.27816828  1
  C  C30  1  0.50000000  0.51338043  0.61190508  1
  C  C31  1  0.50000000  0.51347277  0.94358708  1
  C  C32  1  0.50000000  0.57982674  0.61268495  1
  C  C33  1  0.50000000  0.58024763  0.94231226  1
  C  C34  1  0.50000000  0.67093963  0.27644379  1
  C  C35  1  0.50000000  0.64662962  0.61165626  1
  C  C36  1  0.50000000  0.64708842  0.94413656  1
  C  C37  1  0.50000000  0.73538036  0.27703879  1
  C  C38  1  0.50000000  0.71179981  0.61225755  1
  C  C39  1  0.50000000  0.71221828  0.94109465  1
  C  C40  1  0.50000000  0.28349202  0.30646370  1
  C  C41  1  0.50000000  0.28247118  0.63978473  1
  C  C42  1  0.50000000  0.28275330  0.97384661  1
  C  C43  1  0.50000000  0.34889590  0.30552404  1
  C  C44  1  0.50000000  0.34780000  0.63881557  1
  C  C45  1  0.50000000  0.34807282  0.97235255  1
  C  C46  1  0.50000000  0.41526650  0.30548030  1
  C  C47  1  0.50000000  0.41409052  0.63885911  1
  C  C48  1  0.50000000  0.41436239  0.97199468  1
  C  C49  1  0.50000000  0.48164018  0.30580686  1
  C  C50  1  0.50000000  0.48037951  0.63920004  1
  C  C51  1  0.50000000  0.48057023  0.97174001  1
  C  C52  1  0.50000000  0.54691826  0.30721530  1
  C  C53  1  0.50000000  0.54653338  0.63986577  1
  C  C54  1  0.50000000  0.54652926  0.97123206  1
  C  C55  1  0.50000000  0.61319585  0.63931050  1
  C  C56  1  0.50000000  0.61288393  0.96779529  1
  C  C57  1  0.50000000  0.70299411  0.30508181  1
  C  C58  1  0.50000000  0.67949003  0.63975397  1
  C  C59  1  0.50000000  0.68113907  0.97152284  1
  C  C60  1  0.50000000  0.28295413  0.02709537  1
  C  C61  1  0.50000000  0.28333407  0.35967605  1
  C  C62  1  0.50000000  0.28241319  0.69308712  1
  C  C63  1  0.50000000  0.34828965  0.02785022  1
  C  C64  1  0.50000000  0.34870331  0.36101176  1
  C  C65  1  0.50000000  0.34773814  0.69433469  1
  C  C66  1  0.50000000  0.41455895  0.02773503  1
  C  C67  1  0.50000000  0.41509025  0.36135255  1
  C  C68  1  0.50000000  0.41399941  0.69457518  1
  C  C69  1  0.50000000  0.48067560  0.02709383  1
  C  C70  1  0.50000000  0.48148473  0.36144982  1
  C  C71  1  0.50000000  0.48029153  0.69459337  1
  C  C72  1  0.50000000  0.54576759  0.02526532  1
  C  C73  1  0.50000000  0.54671401  0.36063349  1
  C  C74  1  0.50000000  0.54652731  0.69485268  1
  C  C75  1  0.50000000  0.61291247  0.69468277  1
  C  C76  1  0.50000000  0.68690438  0.02815466  1
  C  C77  1  0.50000000  0.69978960  0.36149211  1
  C  C78  1  0.50000000  0.67921636  0.69542643  1
  C  C79  1  0.50000000  0.31532900  0.05554313  1
  C  C80  1  0.50000000  0.31556072  0.38845480  1
  C  C81  1  0.50000000  0.31464498  0.72192475  1
  C  C82  1  0.50000000  0.38165526  0.05566767  1
  C  C83  1  0.50000000  0.38193015  0.38902205  1
  C  C84  1  0.50000000  0.38099448  0.72228075  1
  C  C85  1  0.50000000  0.44764709  0.05532070  1
  C  C86  1  0.50000000  0.44799145  0.38922086  1
  C  C87  1  0.50000000  0.44706582  0.72233378  1
  C  C88  1  0.50000000  0.51401810  0.05421611  1
  C  C89  1  0.50000000  0.51443203  0.38934493  1
  C  C90  1  0.50000000  0.51328535  0.72229196  1
  C  C91  1  0.50000000  0.57992591  0.72221998  1
  C  C92  1  0.50000000  0.65910180  0.06486711  1
  C  C93  1  0.50000000  0.66525897  0.38283689  1
  C  C94  1  0.50000000  0.64606472  0.72247247  1
  C  C95  1  0.50000000  0.72199201  0.04999194  1
  C  C96  1  0.50000000  0.72834573  0.39699409  1
  C  C97  1  0.50000000  0.71153996  0.72344967  1
  C  C98  1  0.50000000  0.31557508  0.11153535  1
  C  C99  1  0.50000000  0.31534458  0.44444301  1
  C  C100  1  0.50000000  0.31465043  0.77804743  1
  C  C101  1  0.50000000  0.38194928  0.11100245  1
  C  C102  1  0.50000000  0.38165415  0.44431877  1
  C  C103  1  0.50000000  0.38099997  0.77769290  1
  C  C104  1  0.50000000  0.44798441  0.11077674  1
  C  C105  1  0.50000000  0.44765286  0.44467392  1
  C  C106  1  0.50000000  0.44706262  0.77765943  1
  C  C107  1  0.50000000  0.51442322  0.11065683  1
  C  C108  1  0.50000000  0.51402818  0.44576707  1
  C  C109  1  0.50000000  0.51328198  0.77768751  1
  C  C110  1  0.50000000  0.57992317  0.77775195  1
  C  C111  1  0.50000000  0.66518626  0.11719269  1
  C  C112  1  0.50000000  0.65917162  0.43516056  1
  C  C113  1  0.50000000  0.64606553  0.77752427  1
  C  C114  1  0.50000000  0.72826999  0.10303751  1
  C  C115  1  0.50000000  0.72206240  0.45004664  1
  C  C116  1  0.50000000  0.71154119  0.77657217  1
  C  C117  1  0.50000000  0.28334696  0.14034249  1
  C  C118  1  0.50000000  0.28295723  0.47290270  1
  C  C119  1  0.50000000  0.28240863  0.80684926  1
  C  C120  1  0.50000000  0.34871719  0.13899654  1
  C  C121  1  0.50000000  0.34831791  0.47212533  1
  C  C122  1  0.50000000  0.34774774  0.80563672  1
  C  C123  1  0.50000000  0.41509640  0.13866478  1
  C  C124  1  0.50000000  0.41456100  0.47224663  1
  C  C125  1  0.50000000  0.41399977  0.80540661  1
  C  C126  1  0.50000000  0.48147435  0.13856305  1
  C  C127  1  0.50000000  0.48069325  0.47289502  1
  C  C128  1  0.50000000  0.48029129  0.80537308  1
  C  C129  1  0.50000000  0.54671789  0.13937592  1
  C  C130  1  0.50000000  0.54577395  0.47470491  1
  C  C131  1  0.50000000  0.54652259  0.80511906  1
  C  C132  1  0.50000000  0.61290703  0.80530279  1
  C  C133  1  0.50000000  0.69971742  0.13854192  1
  C  C134  1  0.50000000  0.68696654  0.47186885  1
  C  C135  1  0.50000000  0.67921627  0.80458358  1
  C  C136  1  0.50000000  0.28349941  0.19355691  1
  C  C137  1  0.50000000  0.28276804  0.52615465  1
  C  C138  1  0.50000000  0.28246979  0.86016700  1
  C  C139  1  0.50000000  0.34890704  0.19447388  1
  C  C140  1  0.50000000  0.34809110  0.52763093  1
  C  C141  1  0.50000000  0.34781134  0.86117609  1
  C  C142  1  0.50000000  0.41528587  0.19454877  1
  C  C143  1  0.50000000  0.41435536  0.52799395  1
  C  C144  1  0.50000000  0.41409352  0.86112148  1
  C  C145  1  0.50000000  0.48163830  0.19420859  1
  C  C146  1  0.50000000  0.48058902  0.52824051  1
  C  C147  1  0.50000000  0.48037991  0.86075782  1
  C  C148  1  0.50000000  0.54692162  0.19280142  1
  C  C149  1  0.50000000  0.54653775  0.52874319  1
  C  C150  1  0.50000000  0.54652720  0.86010813  1
  C  C151  1  0.50000000  0.61290421  0.53219461  1
  C  C152  1  0.50000000  0.61318451  0.86067912  1
  C  C153  1  0.50000000  0.70297247  0.19494535  1
  C  C154  1  0.50000000  0.68117496  0.52848900  1
  C  C155  1  0.50000000  0.67948881  0.86026082  1
  H  H156  1  0.50000000  0.76114938  0.20252065  1
  H  H157  1  0.50000000  0.73855974  0.54051984  1
  H  H158  1  0.50000000  0.73767121  0.86798679  1
  H  H159  1  0.50000000  0.76116489  0.29747575  1
  H  H160  1  0.50000000  0.73767734  0.63204770  1
  H  H161  1  0.50000000  0.73852992  0.95954716  1
  H  H162  1  0.50000000  0.25760826  0.28655921  1
  H  H163  1  0.50000000  0.25654755  0.61998641  1
  H  H164  1  0.50000000  0.25674999  0.95435397  1
  H  H165  1  0.50000000  0.25711061  0.04703946  1
  H  H166  1  0.50000000  0.25732894  0.37924058  1
  H  H167  1  0.50000000  0.25643209  0.71272190  1
  H  H168  1  0.50000000  0.74594764  0.02562858  1
  H  H169  1  0.50000000  0.75623793  0.38340890  1
  H  H170  1  0.50000000  0.73727454  0.70326597  1
  H  H171  1  0.50000000  0.75615520  0.11663621  1
  H  H172  1  0.50000000  0.74601782  0.47441170  1
  H  H173  1  0.50000000  0.73726210  0.79678967  1
  H  H174  1  0.50000000  0.25735159  0.12076102  1
  H  H175  1  0.50000000  0.25709697  0.45296509  1
  H  H176  1  0.50000000  0.25640847  0.78725431  1
  H  H177  1  0.50000000  0.25761597  0.21348075  1
  H  H178  1  0.50000000  0.25676655  0.54570609  1
  H  H179  1  0.50000000  0.25654590  0.87995304  1
  H  H180  1  0.50000000  0.64473533  0.20498662  1
  H  H181  1  0.50000000  0.64474401  0.29505705  1
  H  H182  1  0.50000000  0.57293787  0.28758820  1
  H  H183  1  0.50000000  0.61081312  0.00902021  1
  H  H184  1  0.50000000  0.57106021  0.04638449  1
  H  H185  1  0.50000000  0.57261332  0.38051585  1
  H  H186  1  0.50000000  0.63100043  0.05498745  1
  H  H187  1  0.50000000  0.64135130  0.35869021  1
  H  H188  1  0.50000000  0.64126834  0.14132788  1
  H  H189  1  0.50000000  0.63107603  0.44506565  1
  H  H190  1  0.50000000  0.57264184  0.11952083  1
  H  H191  1  0.50000000  0.57108242  0.45361755  1
  H  H192  1  0.50000000  0.57298924  0.21233147  1
  H  H193  1  0.50000000  0.61084164  0.49096407  1
