# generated using pymatgen
data_HC6
_symmetry_space_group_name_H-M   'P 1'
_cell_length_a   20.00000000
_cell_length_b   37.22700000
_cell_length_c   25.84711527
_cell_angle_alpha   90.00000000
_cell_angle_beta   90.00000000
_cell_angle_gamma   90.00000000
_symmetry_Int_Tables_number   1
_chemical_formula_structural   HC6
_chemical_formula_sum   'H26 C156'
_cell_volume   19244.21120405
_cell_formula_units_Z   26
loop_
 _symmetry_equiv_pos_site_id
 _symmetry_equiv_pos_as_xyz
  1  'x, y, z'
loop_
 _atom_site_type_symbol
 _atom_site_label
 _atom_site_symmetry_multiplicity
 _atom_site_fract_x
 _atom_site_fract_y
 _atom_site_fract_z
 _atom_site_occupancy
  C  C0  1  0.50000000  0.32012528  0.22345550  1
  C  C1  1  0.50000000  0.31462764  0.55543804  1
  C  C2  1  0.50000000  0.31698652  0.88755289  1
  C  C3  1  0.50000000  0.38572719  0.22239808  1
  C  C4  1  0.50000000  0.38252734  0.55449271  1
  C  C5  1  0.50000000  0.38351437  0.88944028  1
  C  C6  1  0.50000000  0.45167309  0.22209358  1
  C  C7  1  0.50000000  0.44976840  0.55520737  1
  C  C8  1  0.50000000  0.44994907  0.88929285  1
  C  C9  1  0.50000000  0.51766603  0.22224613  1
  C  C10  1  0.50000000  0.51629667  0.55559605  1
  C  C11  1  0.50000000  0.51625179  0.88898538  1
  C  C12  1  0.50000000  0.58364022  0.22223746  1
  C  C13  1  0.50000000  0.58255029  0.55582068  1
  C  C14  1  0.50000000  0.58258090  0.88857498  1
  C  C15  1  0.50000000  0.64996777  0.22194502  1
  C  C16  1  0.50000000  0.64877098  0.55616190  1
  C  C17  1  0.50000000  0.64900544  0.88843911  1
  C  C18  1  0.50000000  0.71470059  0.55639006  1
  C  C19  1  0.50000000  0.71478154  0.89037988  1
  C  C20  1  0.50000000  0.32009660  0.27640105  1
  C  C21  1  0.50000000  0.31694943  0.61251613  1
  C  C22  1  0.50000000  0.31465919  0.94463558  1
  C  C23  1  0.50000000  0.38570653  0.27757217  1
  C  C24  1  0.50000000  0.38347985  0.61057677  1
  C  C25  1  0.50000000  0.38254577  0.94551356  1
  C  C26  1  0.50000000  0.45166289  0.27788188  1
  C  C27  1  0.50000000  0.44993153  0.61069735  1
  C  C28  1  0.50000000  0.44978521  0.94478142  1
  C  C29  1  0.50000000  0.51765719  0.27774526  1
  C  C30  1  0.50000000  0.51624473  0.61099405  1
  C  C31  1  0.50000000  0.51631333  0.94438964  1
  C  C32  1  0.50000000  0.58363842  0.27776492  1
  C  C33  1  0.50000000  0.58258304  0.61140946  1
  C  C34  1  0.50000000  0.58255693  0.94417498  1
  C  C35  1  0.50000000  0.64996582  0.27810619  1
  C  C36  1  0.50000000  0.64902355  0.61154820  1
  C  C37  1  0.50000000  0.64876791  0.94382993  1
  C  C38  1  0.50000000  0.71481220  0.60956821  1
  C  C39  1  0.50000000  0.71468515  0.94354732  1
  C  C40  1  0.50000000  0.28539702  0.64240455  1
  C  C41  1  0.50000000  0.28002723  0.96316866  1
  C  C42  1  0.50000000  0.35266561  0.30445881  1
  C  C43  1  0.50000000  0.35038789  0.63885554  1
  C  C44  1  0.50000000  0.34926493  0.97326707  1
  C  C45  1  0.50000000  0.41866952  0.30573559  1
  C  C46  1  0.50000000  0.41645601  0.63820611  1
  C  C47  1  0.50000000  0.41649363  0.97271136  1
  C  C48  1  0.50000000  0.48451348  0.30568449  1
  C  C49  1  0.50000000  0.48295083  0.63856619  1
  C  C50  1  0.50000000  0.48319295  0.97223484  1
  C  C51  1  0.50000000  0.55065345  0.30556597  1
  C  C52  1  0.50000000  0.54939971  0.63896407  1
  C  C53  1  0.50000000  0.54967575  0.97198468  1
  C  C54  1  0.50000000  0.61688595  0.30572723  1
  C  C55  1  0.50000000  0.61568309  0.63930273  1
  C  C56  1  0.50000000  0.61584945  0.97192478  1
  C  C57  1  0.50000000  0.68216007  0.30685969  1
  C  C58  1  0.50000000  0.68229565  0.63864615  1
  C  C59  1  0.50000000  0.68187870  0.97169550  1
  C  C60  1  0.50000000  0.28585985  0.69536308  1
  C  C61  1  0.50000000  0.35092958  0.02893979  1
  C  C62  1  0.50000000  0.35267549  0.35976431  1
  C  C63  1  0.50000000  0.35099301  0.69432602  1
  C  C64  1  0.50000000  0.41740306  0.02795838  1
  C  C65  1  0.50000000  0.41841199  0.36094328  1
  C  C66  1  0.50000000  0.41686722  0.69420667  1
  C  C67  1  0.50000000  0.48365488  0.02773781  1
  C  C68  1  0.50000000  0.48433677  0.36123713  1
  C  C69  1  0.50000000  0.48307718  0.69436215  1
  C  C70  1  0.50000000  0.54999578  0.02758162  1
  C  C71  1  0.50000000  0.55057007  0.36140465  1
  C  C72  1  0.50000000  0.54941781  0.69445189  1
  C  C73  1  0.50000000  0.61619730  0.02726058  1
  C  C74  1  0.50000000  0.61681224  0.36133746  1
  C  C75  1  0.50000000  0.61570617  0.69451572  1
  C  C76  1  0.50000000  0.68153967  0.02619111  1
  C  C77  1  0.50000000  0.68208590  0.36035062  1
  C  C78  1  0.50000000  0.68228229  0.69456466  1
  C  C79  1  0.50000000  0.31972313  0.06024920  1
  C  C80  1  0.50000000  0.32014157  0.38700888  1
  C  C81  1  0.50000000  0.31836981  0.72236151  1
  C  C82  1  0.50000000  0.38448888  0.05600224  1
  C  C83  1  0.50000000  0.38509259  0.38840608  1
  C  C84  1  0.50000000  0.38413889  0.72218882  1
  C  C85  1  0.50000000  0.45080881  0.05547074  1
  C  C86  1  0.50000000  0.45123999  0.38894977  1
  C  C87  1  0.50000000  0.44995987  0.72216994  1
  C  C88  1  0.50000000  0.51699030  0.05543065  1
  C  C89  1  0.50000000  0.51735664  0.38916159  1
  C  C90  1  0.50000000  0.51609622  0.72217154  1
  C  C91  1  0.50000000  0.58315978  0.05527349  1
  C  C92  1  0.50000000  0.58340042  0.38910176  1
  C  C93  1  0.50000000  0.58249323  0.72213232  1
  C  C94  1  0.50000000  0.64977888  0.05464836  1
  C  C95  1  0.50000000  0.64984855  0.38894788  1
  C  C96  1  0.50000000  0.64912273  0.72219008  1
  C  C97  1  0.50000000  0.71466626  0.72339599  1
  C  C98  1  0.50000000  0.32018637  0.11294486  1
  C  C99  1  0.50000000  0.31969322  0.43973972  1
  C  C100  1  0.50000000  0.31836417  0.77774677  1
  C  C101  1  0.50000000  0.38511902  0.11156488  1
  C  C102  1  0.50000000  0.38447136  0.44397370  1
  C  C103  1  0.50000000  0.38414009  0.77783494  1
  C  C104  1  0.50000000  0.45126695  0.11103430  1
  C  C105  1  0.50000000  0.45078473  0.44451154  1
  C  C106  1  0.50000000  0.44996132  0.77781922  1
  C  C107  1  0.50000000  0.51737326  0.11082351  1
  C  C108  1  0.50000000  0.51697386  0.44455914  1
  C  C109  1  0.50000000  0.51609565  0.77779888  1
  C  C110  1  0.50000000  0.58342814  0.11089548  1
  C  C111  1  0.50000000  0.58315851  0.44468576  1
  C  C112  1  0.50000000  0.58248790  0.77783241  1
  C  C113  1  0.50000000  0.64988619  0.11108051  1
  C  C114  1  0.50000000  0.64975745  0.44536509  1
  C  C115  1  0.50000000  0.64910699  0.77778114  1
  C  C116  1  0.50000000  0.71464227  0.77665416  1
  C  C117  1  0.50000000  0.28586280  0.80474154  1
  C  C118  1  0.50000000  0.35271245  0.14020781  1
  C  C119  1  0.50000000  0.35091463  0.47103062  1
  C  C120  1  0.50000000  0.35100620  0.80573040  1
  C  C121  1  0.50000000  0.41843289  0.13902001  1
  C  C122  1  0.50000000  0.41738372  0.47202225  1
  C  C123  1  0.50000000  0.41687372  0.80579859  1
  C  C124  1  0.50000000  0.48435414  0.13874295  1
  C  C125  1  0.50000000  0.48363072  0.47224277  1
  C  C126  1  0.50000000  0.48308124  0.80561844  1
  C  C127  1  0.50000000  0.55058987  0.13858309  1
  C  C128  1  0.50000000  0.54999097  0.47239425  1
  C  C129  1  0.50000000  0.54941601  0.80552213  1
  C  C130  1  0.50000000  0.61685699  0.13871687  1
  C  C131  1  0.50000000  0.61618313  0.47273278  1
  C  C132  1  0.50000000  0.61569436  0.80545502  1
  C  C133  1  0.50000000  0.68210529  0.13971807  1
  C  C134  1  0.50000000  0.68152422  0.47379568  1
  C  C135  1  0.50000000  0.68224561  0.80542883  1
  C  C136  1  0.50000000  0.28000604  0.53685839  1
  C  C137  1  0.50000000  0.28542610  0.85769361  1
  C  C138  1  0.50000000  0.35271286  0.19548916  1
  C  C139  1  0.50000000  0.34924084  0.52674767  1
  C  C140  1  0.50000000  0.35041877  0.86117613  1
  C  C141  1  0.50000000  0.41869141  0.19424072  1
  C  C142  1  0.50000000  0.41647577  0.52728524  1
  C  C143  1  0.50000000  0.41647732  0.86179911  1
  C  C144  1  0.50000000  0.48452413  0.19430125  1
  C  C145  1  0.50000000  0.48317375  0.52775012  1
  C  C146  1  0.50000000  0.48296019  0.86141447  1
  C  C147  1  0.50000000  0.55066330  0.19442635  1
  C  C148  1  0.50000000  0.54966812  0.52799771  1
  C  C149  1  0.50000000  0.54940148  0.86101365  1
  C  C150  1  0.50000000  0.61690185  0.19431056  1
  C  C151  1  0.50000000  0.61584253  0.52807604  1
  C  C152  1  0.50000000  0.61567275  0.86067251  1
  C  C153  1  0.50000000  0.68215826  0.19321035  1
  C  C154  1  0.50000000  0.68187667  0.52828764  1
  C  C155  1  0.50000000  0.68226325  0.86133296  1
  H  H156  1  0.50000000  0.74001303  0.53471110  1
  H  H157  1  0.50000000  0.74062821  0.87036118  1
  H  H158  1  0.50000000  0.74064496  0.62961851  1
  H  H159  1  0.50000000  0.74006000  0.96503602  1
  H  H160  1  0.50000000  0.25888938  0.62478377  1
  H  H161  1  0.50000000  0.25760783  0.93622269  1
  H  H162  1  0.50000000  0.26022633  0.71572869  1
  H  H163  1  0.50000000  0.74051640  0.70338399  1
  H  H164  1  0.50000000  0.74044654  0.79678409  1
  H  H165  1  0.50000000  0.26017969  0.78460176  1
  H  H166  1  0.50000000  0.25760728  0.56381046  1
  H  H167  1  0.50000000  0.25891943  0.87531484  1
  H  H168  1  0.50000000  0.29443406  0.20324152  1
  H  H169  1  0.50000000  0.29434017  0.29644475  1
  H  H170  1  0.50000000  0.27001193  0.00225034  1
  H  H171  1  0.50000000  0.70805512  0.28699018  1
  H  H172  1  0.50000000  0.70758958  0.04574018  1
  H  H173  1  0.50000000  0.70793060  0.38039075  1
  H  H174  1  0.50000000  0.29353682  0.04346386  1
  H  H175  1  0.50000000  0.29443098  0.36675089  1
  H  H176  1  0.50000000  0.29441230  0.13300209  1
  H  H177  1  0.50000000  0.29357677  0.45673577  1
  H  H178  1  0.50000000  0.70800112  0.11983355  1
  H  H179  1  0.50000000  0.70755630  0.45419056  1
  H  H180  1  0.50000000  0.26994788  0.49777485  1
  H  H181  1  0.50000000  0.70805386  0.21307542  1
