# generated using pymatgen
data_H19C78
_symmetry_space_group_name_H-M   'P 1'
_cell_length_a   20.00000000
_cell_length_b   37.22700000
_cell_length_c   25.94603387
_cell_angle_alpha   90.00000000
_cell_angle_beta   90.00000000
_cell_angle_gamma   90.00000000
_symmetry_Int_Tables_number   1
_chemical_formula_structural   H19C78
_chemical_formula_sum   'H38 C156'
_cell_volume   19317.86005423
_cell_formula_units_Z   2
loop_
 _symmetry_equiv_pos_site_id
 _symmetry_equiv_pos_as_xyz
  1  'x, y, z'
loop_
 _atom_site_type_symbol
 _atom_site_label
 _atom_site_symmetry_multiplicity
 _atom_site_fract_x
 _atom_site_fract_y
 _atom_site_fract_z
 _atom_site_occupancy
  C  C0  1  0.50000000  0.31135094  0.22156418  1
  C  C1  1  0.50000000  0.31822814  0.55666254  1
  C  C2  1  0.50000000  0.31881125  0.88751912  1
  C  C3  1  0.50000000  0.37739319  0.22255593  1
  C  C4  1  0.50000000  0.38510455  0.55510612  1
  C  C5  1  0.50000000  0.38537356  0.88897422  1
  C  C6  1  0.50000000  0.44295814  0.22366430  1
  C  C7  1  0.50000000  0.45148074  0.55640546  1
  C  C8  1  0.50000000  0.45151194  0.88807772  1
  C  C9  1  0.50000000  0.51854655  0.55926652  1
  C  C10  1  0.50000000  0.51864318  0.88620623  1
  C  C11  1  0.50000000  0.58340726  0.22175050  1
  C  C12  1  0.50000000  0.58507101  0.55684547  1
  C  C13  1  0.50000000  0.58509012  0.88754819  1
  C  C14  1  0.50000000  0.64976149  0.22224751  1
  C  C15  1  0.50000000  0.65135357  0.55595958  1
  C  C16  1  0.50000000  0.65147782  0.88861812  1
  C  C17  1  0.50000000  0.71505945  0.22338485  1
  C  C18  1  0.50000000  0.71663209  0.55641154  1
  C  C19  1  0.50000000  0.71683190  0.89030230  1
  C  C20  1  0.50000000  0.31135184  0.27845775  1
  C  C21  1  0.50000000  0.31882333  0.61247497  1
  C  C22  1  0.50000000  0.31821621  0.94333094  1
  C  C23  1  0.50000000  0.37739342  0.27744121  1
  C  C24  1  0.50000000  0.38538406  0.61103360  1
  C  C25  1  0.50000000  0.38508762  0.94490570  1
  C  C26  1  0.50000000  0.44296006  0.27632649  1
  C  C27  1  0.50000000  0.45151869  0.61191685  1
  C  C28  1  0.50000000  0.45148018  0.94359050  1
  C  C29  1  0.50000000  0.51864595  0.61378827  1
  C  C30  1  0.50000000  0.51855401  0.94072263  1
  C  C31  1  0.50000000  0.58340528  0.27825958  1
  C  C32  1  0.50000000  0.58509723  0.61244876  1
  C  C33  1  0.50000000  0.58506833  0.94315045  1
  C  C34  1  0.50000000  0.64976068  0.27777037  1
  C  C35  1  0.50000000  0.65148541  0.61137810  1
  C  C36  1  0.50000000  0.65134732  0.94403621  1
  C  C37  1  0.50000000  0.71506025  0.27662715  1
  C  C38  1  0.50000000  0.71684645  0.60969992  1
  C  C39  1  0.50000000  0.71663509  0.94358403  1
  C  C40  1  0.50000000  0.27965346  0.30854675  1
  C  C41  1  0.50000000  0.28672155  0.64108499  1
  C  C42  1  0.50000000  0.28529303  0.97023100  1
  C  C43  1  0.50000000  0.34448979  0.30600042  1
  C  C44  1  0.50000000  0.35220717  0.63917556  1
  C  C45  1  0.50000000  0.35080735  0.97173375  1
  C  C46  1  0.50000000  0.41045353  0.30382945  1
  C  C47  1  0.50000000  0.41827322  0.63918340  1
  C  C48  1  0.50000000  0.41791413  0.97304823  1
  C  C49  1  0.50000000  0.48492450  0.63983615  1
  C  C50  1  0.50000000  0.48589081  0.96583361  1
  C  C51  1  0.50000000  0.55135189  0.30737694  1
  C  C52  1  0.50000000  0.55202004  0.64058901  1
  C  C53  1  0.50000000  0.55197271  0.97032111  1
  C  C54  1  0.50000000  0.61643040  0.30596037  1
  C  C55  1  0.50000000  0.61817674  0.63949540  1
  C  C56  1  0.50000000  0.61787369  0.97152880  1
  C  C57  1  0.50000000  0.68282285  0.30523655  1
  C  C58  1  0.50000000  0.68464303  0.63860288  1
  C  C59  1  0.50000000  0.68423878  0.97197695  1
  C  C60  1  0.50000000  0.28368036  0.02335148  1
  C  C61  1  0.50000000  0.28056854  0.36216792  1
  C  C62  1  0.50000000  0.28687938  0.69422581  1
  C  C63  1  0.50000000  0.34887629  0.02703940  1
  C  C64  1  0.50000000  0.34551656  0.36159630  1
  C  C65  1  0.50000000  0.35233170  0.69449490  1
  C  C66  1  0.50000000  0.41563036  0.02972272  1
  C  C67  1  0.50000000  0.41103162  0.35899363  1
  C  C68  1  0.50000000  0.41844919  0.69474404  1
  C  C69  1  0.50000000  0.48498971  0.69508328  1
  C  C70  1  0.50000000  0.55260092  0.02448816  1
  C  C71  1  0.50000000  0.55155875  0.36081402  1
  C  C72  1  0.50000000  0.55186116  0.69534113  1
  C  C73  1  0.50000000  0.61760055  0.02676832  1
  C  C74  1  0.50000000  0.61661559  0.36156220  1
  C  C75  1  0.50000000  0.61824085  0.69467553  1
  C  C76  1  0.50000000  0.68390355  0.02805302  1
  C  C77  1  0.50000000  0.68303786  0.36139140  1
  C  C78  1  0.50000000  0.68470564  0.69464321  1
  C  C79  1  0.50000000  0.31508602  0.05346272  1
  C  C80  1  0.50000000  0.31318949  0.39025036  1
  C  C81  1  0.50000000  0.31929360  0.72210450  1
  C  C82  1  0.50000000  0.38156936  0.05588305  1
  C  C83  1  0.50000000  0.37934159  0.38863194  1
  C  C84  1  0.50000000  0.38551676  0.72233142  1
  C  C85  1  0.50000000  0.44569059  0.06294069  1
  C  C86  1  0.50000000  0.44380978  0.38457991  1
  C  C87  1  0.50000000  0.45166947  0.72240189  1
  C  C88  1  0.50000000  0.51826587  0.72245775  1
  C  C89  1  0.50000000  0.58420064  0.05374573  1
  C  C90  1  0.50000000  0.58376246  0.38959201  1
  C  C91  1  0.50000000  0.58518701  0.72237372  1
  C  C92  1  0.50000000  0.65066852  0.05521359  1
  C  C93  1  0.50000000  0.65022466  0.38925014  1
  C  C94  1  0.50000000  0.65162282  0.72231705  1
  C  C95  1  0.50000000  0.71598565  0.05717488  1
  C  C96  1  0.50000000  0.71551251  0.38960613  1
  C  C97  1  0.50000000  0.71693334  0.72332504  1
  C  C98  1  0.50000000  0.31317581  0.10974795  1
  C  C99  1  0.50000000  0.31509851  0.44653463  1
  C  C100  1  0.50000000  0.31929574  0.77789037  1
  C  C101  1  0.50000000  0.37932745  0.11136159  1
  C  C102  1  0.50000000  0.38158408  0.44411195  1
  C  C103  1  0.50000000  0.38551520  0.77767256  1
  C  C104  1  0.50000000  0.44380673  0.11541591  1
  C  C105  1  0.50000000  0.44570540  0.43705865  1
  C  C106  1  0.50000000  0.45166914  0.77760422  1
  C  C107  1  0.50000000  0.51827214  0.77754046  1
  C  C108  1  0.50000000  0.58375927  0.11041066  1
  C  C109  1  0.50000000  0.58421180  0.44624515  1
  C  C110  1  0.50000000  0.58518724  0.77761132  1
  C  C111  1  0.50000000  0.65021827  0.11074706  1
  C  C112  1  0.50000000  0.65067531  0.44479034  1
  C  C113  1  0.50000000  0.65162042  0.77768560  1
  C  C114  1  0.50000000  0.71551509  0.11040203  1
  C  C115  1  0.50000000  0.71599429  0.44282032  1
  C  C116  1  0.50000000  0.71693546  0.77666229  1
  C  C117  1  0.50000000  0.28055878  0.13784571  1
  C  C118  1  0.50000000  0.28369304  0.47665691  1
  C  C119  1  0.50000000  0.28687211  0.80575913  1
  C  C120  1  0.50000000  0.34550618  0.13840498  1
  C  C121  1  0.50000000  0.34889054  0.47295672  1
  C  C122  1  0.50000000  0.35233119  0.80550177  1
  C  C123  1  0.50000000  0.41102180  0.14099607  1
  C  C124  1  0.50000000  0.41564277  0.47028082  1
  C  C125  1  0.50000000  0.41844577  0.80526054  1
  C  C126  1  0.50000000  0.48499711  0.80491209  1
  C  C127  1  0.50000000  0.55156130  0.13919605  1
  C  C128  1  0.50000000  0.55260656  0.47549698  1
  C  C129  1  0.50000000  0.55186548  0.80465264  1
  C  C130  1  0.50000000  0.61661230  0.13844543  1
  C  C131  1  0.50000000  0.61761132  0.47322312  1
  C  C132  1  0.50000000  0.61823863  0.80532183  1
  C  C133  1  0.50000000  0.68303261  0.13860690  1
  C  C134  1  0.50000000  0.68391442  0.47194185  1
  C  C135  1  0.50000000  0.68471540  0.80534007  1
  C  C136  1  0.50000000  0.27964744  0.19146482  1
  C  C137  1  0.50000000  0.28531152  0.52976264  1
  C  C138  1  0.50000000  0.28671829  0.85890710  1
  C  C139  1  0.50000000  0.34448157  0.19400543  1
  C  C140  1  0.50000000  0.35082120  0.52826628  1
  C  C141  1  0.50000000  0.35220066  0.86082066  1
  C  C142  1  0.50000000  0.41045240  0.19616406  1
  C  C143  1  0.50000000  0.41792351  0.52695849  1
  C  C144  1  0.50000000  0.41826262  0.86081883  1
  C  C145  1  0.50000000  0.48589230  0.53416560  1
  C  C146  1  0.50000000  0.48492582  0.86016064  1
  C  C147  1  0.50000000  0.55134322  0.19264077  1
  C  C148  1  0.50000000  0.55197411  0.52966985  1
  C  C149  1  0.50000000  0.55201802  0.85940477  1
  C  C150  1  0.50000000  0.61643142  0.19404521  1
  C  C151  1  0.50000000  0.61788336  0.52845430  1
  C  C152  1  0.50000000  0.61816720  0.86050076  1
  C  C153  1  0.50000000  0.68282755  0.19476887  1
  C  C154  1  0.50000000  0.68424641  0.52801346  1
  C  C155  1  0.50000000  0.68463933  0.86138716  1
  H  H156  1  0.50000000  0.74091155  0.20346136  1
  H  H157  1  0.50000000  0.74242432  0.53625768  1
  H  H158  1  0.50000000  0.74280459  0.87060113  1
  H  H159  1  0.50000000  0.74090631  0.29657039  1
  H  H160  1  0.50000000  0.74280846  0.62942161  1
  H  H161  1  0.50000000  0.74241480  0.96377715  1
  H  H162  1  0.50000000  0.25333793  0.28971648  1
  H  H163  1  0.50000000  0.26074922  0.62152442  1
  H  H164  1  0.50000000  0.25998151  0.94903860  1
  H  H165  1  0.50000000  0.25722647  0.04158056  1
  H  H166  1  0.50000000  0.25493239  0.38279419  1
  H  H167  1  0.50000000  0.26105246  0.71421761  1
  H  H168  1  0.50000000  0.74207703  0.03781720  1
  H  H169  1  0.50000000  0.74120662  0.36924387  1
  H  H170  1  0.50000000  0.74280649  0.70338451  1
  H  H171  1  0.50000000  0.74119944  0.13077152  1
  H  H172  1  0.50000000  0.74208767  0.46219037  1
  H  H173  1  0.50000000  0.74280838  0.79663521  1
  H  H174  1  0.50000000  0.25491298  0.11722707  1
  H  H175  1  0.50000000  0.25724400  0.45840967  1
  H  H176  1  0.50000000  0.26104635  0.78577621  1
  H  H177  1  0.50000000  0.25333480  0.21030809  1
  H  H178  1  0.50000000  0.25998911  0.55095097  1
  H  H179  1  0.50000000  0.26075216  0.87847249  1
  H  H180  1  0.50000000  0.46860349  0.20357484  1
  H  H181  1  0.50000000  0.46860730  0.29641147  1
  H  H182  1  0.50000000  0.48908532  0.00638527  1
  H  H183  1  0.50000000  0.52538274  0.28769977  1
  H  H184  1  0.50000000  0.52731932  0.04555495  1
  H  H185  1  0.50000000  0.52568029  0.38068881  1
  H  H186  1  0.50000000  0.47294871  0.05023584  1
  H  H187  1  0.50000000  0.46902039  0.36337512  1
  H  H188  1  0.50000000  0.46901304  0.13661778  1
  H  H189  1  0.50000000  0.47296464  0.44975645  1
  H  H190  1  0.50000000  0.52568675  0.11931631  1
  H  H191  1  0.50000000  0.52732661  0.45443408  1
  H  H192  1  0.50000000  0.48909760  0.49360714  1
  H  H193  1  0.50000000  0.52536646  0.21229685  1
