# generated using pymatgen
data_H14C87
_symmetry_space_group_name_H-M   'P 1'
_cell_length_a   10.00000000
_cell_length_b   41.10890000
_cell_length_c   25.87248748
_cell_angle_alpha   90.00000000
_cell_angle_beta   90.00000000
_cell_angle_gamma   90.00000000
_symmetry_Int_Tables_number   1
_chemical_formula_structural   H14C87
_chemical_formula_sum   'H28 C174'
_cell_volume   10635.89500429
_cell_formula_units_Z   2
loop_
 _symmetry_equiv_pos_site_id
 _symmetry_equiv_pos_as_xyz
  1  'x, y, z'
loop_
 _atom_site_type_symbol
 _atom_site_label
 _atom_site_symmetry_multiplicity
 _atom_site_fract_x
 _atom_site_fract_y
 _atom_site_fract_z
 _atom_site_occupancy
  C  C0  1  0.50000000  0.28757260  0.64021865  1
  C  C1  1  0.50000000  0.28821861  0.96851607  1
  C  C2  1  0.50000000  0.34866818  0.63999113  1
  C  C3  1  0.50000000  0.34738998  0.96610545  1
  C  C4  1  0.50000000  0.41268347  0.30399428  1
  C  C5  1  0.50000000  0.40890892  0.63895748  1
  C  C6  1  0.50000000  0.40881005  0.97325585  1
  C  C7  1  0.50000000  0.47227221  0.30574848  1
  C  C8  1  0.50000000  0.46892405  0.63852941  1
  C  C9  1  0.50000000  0.46951141  0.97254222  1
  C  C10  1  0.50000000  0.53170901  0.30573009  1
  C  C11  1  0.50000000  0.52921696  0.63883147  1
  C  C12  1  0.50000000  0.52979280  0.97197131  1
  C  C13  1  0.50000000  0.59150995  0.30561791  1
  C  C14  1  0.50000000  0.58948752  0.63912366  1
  C  C15  1  0.50000000  0.58998987  0.97176703  1
  C  C16  1  0.50000000  0.65142111  0.30583263  1
  C  C17  1  0.50000000  0.64954553  0.63949595  1
  C  C18  1  0.50000000  0.64995765  0.97167549  1
  C  C19  1  0.50000000  0.71051359  0.30722648  1
  C  C20  1  0.50000000  0.70988313  0.63898188  1
  C  C21  1  0.50000000  0.70976074  0.97127313  1
  C  C22  1  0.50000000  0.28803857  0.69576998  1
  C  C23  1  0.50000000  0.34883384  0.69517048  1
  C  C24  1  0.50000000  0.41008513  0.02933591  1
  C  C25  1  0.50000000  0.41277356  0.35898584  1
  C  C26  1  0.50000000  0.40899113  0.69441122  1
  C  C27  1  0.50000000  0.47044193  0.02780996  1
  C  C28  1  0.50000000  0.47193659  0.36091833  1
  C  C29  1  0.50000000  0.46898649  0.69426447  1
  C  C30  1  0.50000000  0.53042633  0.02750335  1
  C  C31  1  0.50000000  0.53141338  0.36126956  1
  C  C32  1  0.50000000  0.52917452  0.69452374  1
  C  C33  1  0.50000000  0.59049535  0.02743538  1
  C  C34  1  0.50000000  0.59127655  0.36154269  1
  C  C35  1  0.50000000  0.58939896  0.69458995  1
  C  C36  1  0.50000000  0.65042820  0.02695416  1
  C  C37  1  0.50000000  0.65120423  0.36149757  1
  C  C38  1  0.50000000  0.64948163  0.69461443  1
  C  C39  1  0.50000000  0.70957760  0.02569239  1
  C  C40  1  0.50000000  0.71027365  0.36073258  1
  C  C41  1  0.50000000  0.70977988  0.69472167  1
  C  C42  1  0.50000000  0.25874281  0.72344914  1
  C  C43  1  0.50000000  0.31839198  0.72244518  1
  C  C44  1  0.50000000  0.38239941  0.06211894  1
  C  C45  1  0.50000000  0.38331660  0.38541110  1
  C  C46  1  0.50000000  0.37885526  0.72223424  1
  C  C47  1  0.50000000  0.44066784  0.05606854  1
  C  C48  1  0.50000000  0.44175758  0.38826180  1
  C  C49  1  0.50000000  0.43904107  0.72213398  1
  C  C50  1  0.50000000  0.50076077  0.05534957  1
  C  C51  1  0.50000000  0.50149977  0.38901512  1
  C  C52  1  0.50000000  0.49908866  0.72219807  1
  C  C53  1  0.50000000  0.56068052  0.05534596  1
  C  C54  1  0.50000000  0.56120433  0.38929248  1
  C  C55  1  0.50000000  0.55919464  0.72228676  1
  C  C56  1  0.50000000  0.62057211  0.05507353  1
  C  C57  1  0.50000000  0.62092023  0.38939870  1
  C  C58  1  0.50000000  0.61936530  0.72223027  1
  C  C59  1  0.50000000  0.68086148  0.05430244  1
  C  C60  1  0.50000000  0.68103891  0.38927974  1
  C  C61  1  0.50000000  0.67972896  0.72227224  1
  C  C62  1  0.50000000  0.73912250  0.72350454  1
  C  C63  1  0.50000000  0.25873799  0.77648916  1
  C  C64  1  0.50000000  0.31838722  0.77749001  1
  C  C65  1  0.50000000  0.38333246  0.11456916  1
  C  C66  1  0.50000000  0.38243480  0.43786125  1
  C  C67  1  0.50000000  0.37885307  0.77770831  1
  C  C68  1  0.50000000  0.44176468  0.11170016  1
  C  C69  1  0.50000000  0.44068967  0.44389604  1
  C  C70  1  0.50000000  0.43904201  0.77784905  1
  C  C71  1  0.50000000  0.50150459  0.11096057  1
  C  C72  1  0.50000000  0.50077044  0.44462496  1
  C  C73  1  0.50000000  0.49909308  0.77779057  1
  C  C74  1  0.50000000  0.56120899  0.11070091  1
  C  C75  1  0.50000000  0.56067467  0.44464867  1
  C  C76  1  0.50000000  0.55919657  0.77772534  1
  C  C77  1  0.50000000  0.62093099  0.11063691  1
  C  C78  1  0.50000000  0.62055404  0.44500272  1
  C  C79  1  0.50000000  0.61936751  0.77779588  1
  C  C80  1  0.50000000  0.68106058  0.11080880  1
  C  C81  1  0.50000000  0.68085523  0.44576590  1
  C  C82  1  0.50000000  0.67972580  0.77777798  1
  C  C83  1  0.50000000  0.73911905  0.77662446  1
  C  C84  1  0.50000000  0.28803128  0.80416763  1
  C  C85  1  0.50000000  0.34883055  0.80475967  1
  C  C86  1  0.50000000  0.41279283  0.14097648  1
  C  C87  1  0.50000000  0.41011804  0.47062237  1
  C  C88  1  0.50000000  0.40898648  0.80555036  1
  C  C89  1  0.50000000  0.47194308  0.13904816  1
  C  C90  1  0.50000000  0.47045960  0.47215799  1
  C  C91  1  0.50000000  0.46899070  0.80571210  1
  C  C92  1  0.50000000  0.53141794  0.13871145  1
  C  C93  1  0.50000000  0.53043236  0.47246970  1
  C  C94  1  0.50000000  0.52917480  0.80547420  1
  C  C95  1  0.50000000  0.59127735  0.13845752  1
  C  C96  1  0.50000000  0.59048648  0.47257735  1
  C  C97  1  0.50000000  0.58940262  0.80542759  1
  C  C98  1  0.50000000  0.65121630  0.13856107  1
  C  C99  1  0.50000000  0.65042002  0.47309948  1
  C  C100  1  0.50000000  0.64948169  0.80542786  1
  C  C101  1  0.50000000  0.71028950  0.13940656  1
  C  C102  1  0.50000000  0.70956340  0.47440042  1
  C  C103  1  0.50000000  0.70976460  0.80535687  1
  C  C104  1  0.50000000  0.28821153  0.53131714  1
  C  C105  1  0.50000000  0.28755620  0.85972035  1
  C  C106  1  0.50000000  0.34737677  0.53379581  1
  C  C107  1  0.50000000  0.34866800  0.85993382  1
  C  C108  1  0.50000000  0.41270945  0.19595701  1
  C  C109  1  0.50000000  0.40882511  0.52669696  1
  C  C110  1  0.50000000  0.40890992  0.86099033  1
  C  C111  1  0.50000000  0.47228248  0.19422411  1
  C  C112  1  0.50000000  0.46950874  0.52743141  1
  C  C113  1  0.50000000  0.46892760  0.86143980  1
  C  C114  1  0.50000000  0.53171269  0.19425442  1
  C  C115  1  0.50000000  0.52980232  0.52801676  1
  C  C116  1  0.50000000  0.52922077  0.86116453  1
  C  C117  1  0.50000000  0.59151037  0.19438521  1
  C  C118  1  0.50000000  0.58999749  0.52820397  1
  C  C119  1  0.50000000  0.58949540  0.86089027  1
  C  C120  1  0.50000000  0.65141828  0.19422527  1
  C  C121  1  0.50000000  0.64994600  0.52837497  1
  C  C122  1  0.50000000  0.64955252  0.86054802  1
  C  C123  1  0.50000000  0.71050504  0.19291705  1
  C  C124  1  0.50000000  0.70972446  0.52880176  1
  C  C125  1  0.50000000  0.70986814  0.86108627  1
  C  C126  1  0.50000000  0.25879792  0.55730394  1
  C  C127  1  0.50000000  0.25856525  0.88849576  1
  C  C128  1  0.50000000  0.31767948  0.55975614  1
  C  C129  1  0.50000000  0.31792346  0.88569957  1
  C  C130  1  0.50000000  0.38311056  0.22356149  1
  C  C131  1  0.50000000  0.37821945  0.55599910  1
  C  C132  1  0.50000000  0.37867641  0.88808406  1
  C  C133  1  0.50000000  0.44258088  0.22253088  1
  C  C134  1  0.50000000  0.43874139  0.55461568  1
  C  C135  1  0.50000000  0.43892734  0.88917707  1
  C  C136  1  0.50000000  0.50206174  0.22211665  1
  C  C137  1  0.50000000  0.49952777  0.55550144  1
  C  C138  1  0.50000000  0.49931473  0.88893936  1
  C  C139  1  0.50000000  0.56169904  0.22225888  1
  C  C140  1  0.50000000  0.55975246  0.55589541  1
  C  C141  1  0.50000000  0.55946855  0.88875440  1
  C  C142  1  0.50000000  0.62136233  0.22226040  1
  C  C143  1  0.50000000  0.61973323  0.55601752  1
  C  C144  1  0.50000000  0.61959494  0.88848664  1
  C  C145  1  0.50000000  0.68141226  0.22188111  1
  C  C146  1  0.50000000  0.67969148  0.55653823  1
  C  C147  1  0.50000000  0.67978820  0.88820953  1
  C  C148  1  0.50000000  0.73940623  0.55702031  1
  C  C149  1  0.50000000  0.73940872  0.88993656  1
  C  C150  1  0.50000000  0.25860373  0.61140959  1
  C  C151  1  0.50000000  0.25877490  0.94262175  1
  C  C152  1  0.50000000  0.31792628  0.61420757  1
  C  C153  1  0.50000000  0.31769444  0.94013248  1
  C  C154  1  0.50000000  0.38309514  0.27632765  1
  C  C155  1  0.50000000  0.37867558  0.61184945  1
  C  C156  1  0.50000000  0.37822505  0.94393427  1
  C  C157  1  0.50000000  0.44256872  0.27744206  1
  C  C158  1  0.50000000  0.43892634  0.61078113  1
  C  C159  1  0.50000000  0.43874428  0.94533750  1
  C  C160  1  0.50000000  0.50205671  0.27787348  1
  C  C161  1  0.50000000  0.49931856  0.61103839  1
  C  C162  1  0.50000000  0.49951980  0.94449945  1
  C  C163  1  0.50000000  0.56169861  0.27773769  1
  C  C164  1  0.50000000  0.55946343  0.61123635  1
  C  C165  1  0.50000000  0.55975057  0.94409242  1
  C  C166  1  0.50000000  0.62136689  0.27777979  1
  C  C167  1  0.50000000  0.61958612  0.61154454  1
  C  C168  1  0.50000000  0.61974504  0.94400821  1
  C  C169  1  0.50000000  0.68142713  0.27820952  1
  C  C170  1  0.50000000  0.67978742  0.61185764  1
  C  C171  1  0.50000000  0.67971540  0.94353505  1
  C  C172  1  0.50000000  0.73941157  0.61008569  1
  C  C173  1  0.50000000  0.73943936  0.94301366  1
  H  H174  1  0.50000000  0.23550588  0.70309279  1
  H  H175  1  0.50000000  0.76259853  0.70370593  1
  H  H176  1  0.50000000  0.23549966  0.79684127  1
  H  H177  1  0.50000000  0.76257704  0.79650063  1
  H  H178  1  0.50000000  0.23571214  0.53620435  1
  H  H179  1  0.50000000  0.23510680  0.86866782  1
  H  H180  1  0.50000000  0.76242374  0.53560883  1
  H  H181  1  0.50000000  0.76278054  0.86978516  1
  H  H182  1  0.50000000  0.23508717  0.63104244  1
  H  H183  1  0.50000000  0.23578179  0.96400804  1
  H  H184  1  0.50000000  0.76282837  0.63008277  1
  H  H185  1  0.50000000  0.76247683  0.96438526  1
  H  H186  1  0.50000000  0.28919590  0.01085632  1
  H  H187  1  0.50000000  0.34296805  0.00653664  1
  H  H188  1  0.50000000  0.73410490  0.28770191  1
  H  H189  1  0.50000000  0.73315884  0.04526031  1
  H  H190  1  0.50000000  0.73366278  0.38084510  1
  H  H191  1  0.50000000  0.35779425  0.04938802  1
  H  H192  1  0.50000000  0.36013252  0.36503417  1
  H  H193  1  0.50000000  0.36014825  0.13496327  1
  H  H194  1  0.50000000  0.35789997  0.45087607  1
  H  H195  1  0.50000000  0.73370204  0.11936586  1
  H  H196  1  0.50000000  0.73319618  0.45500233  1
  H  H197  1  0.50000000  0.28916848  0.48894252  1
  H  H198  1  0.50000000  0.34292343  0.49335141  1
  H  H199  1  0.50000000  0.73404536  0.21261702  1
  H  H200  1  0.50000000  0.35983003  0.20347048  1
  H  H201  1  0.50000000  0.35977414  0.29629232  1
