# generated using pymatgen
data_H19C78
_symmetry_space_group_name_H-M   'P 1'
_cell_length_a   20.00000000
_cell_length_b   37.22700000
_cell_length_c   25.92364306
_cell_angle_alpha   90.00000000
_cell_angle_beta   90.00000000
_cell_angle_gamma   90.00000000
_symmetry_Int_Tables_number   1
_chemical_formula_structural   H19C78
_chemical_formula_sum   'H38 C156'
_cell_volume   19301.18920704
_cell_formula_units_Z   2
loop_
 _symmetry_equiv_pos_site_id
 _symmetry_equiv_pos_as_xyz
  1  'x, y, z'
loop_
 _atom_site_type_symbol
 _atom_site_label
 _atom_site_symmetry_multiplicity
 _atom_site_fract_x
 _atom_site_fract_y
 _atom_site_fract_z
 _atom_site_occupancy
  C  C0  1  0.50000000  0.31508797  0.22195101  1
  C  C1  1  0.50000000  0.31746026  0.55624752  1
  C  C2  1  0.50000000  0.31788647  0.88806988  1
  C  C3  1  0.50000000  0.38140840  0.22239625  1
  C  C4  1  0.50000000  0.38382115  0.55601343  1
  C  C5  1  0.50000000  0.38421310  0.88885172  1
  C  C6  1  0.50000000  0.44733181  0.22222094  1
  C  C7  1  0.50000000  0.45024830  0.55550155  1
  C  C8  1  0.50000000  0.45047222  0.88899892  1
  C  C9  1  0.50000000  0.51307325  0.22252775  1
  C  C10  1  0.50000000  0.51735008  0.55492891  1
  C  C11  1  0.50000000  0.51707929  0.88907737  1
  C  C12  1  0.50000000  0.57868396  0.22365870  1
  C  C13  1  0.50000000  0.58407804  0.55695775  1
  C  C14  1  0.50000000  0.58346200  0.88774549  1
  C  C15  1  0.50000000  0.65133057  0.56024297  1
  C  C16  1  0.50000000  0.65079717  0.88524626  1
  C  C17  1  0.50000000  0.71723959  0.22350373  1
  C  C18  1  0.50000000  0.71775551  0.56094489  1
  C  C19  1  0.50000000  0.71694908  0.88665003  1
  C  C20  1  0.50000000  0.31508326  0.27804400  1
  C  C21  1  0.50000000  0.31788015  0.61194343  1
  C  C22  1  0.50000000  0.31746373  0.94377007  1
  C  C23  1  0.50000000  0.38138978  0.27767135  1
  C  C24  1  0.50000000  0.38421030  0.61114616  1
  C  C25  1  0.50000000  0.38382003  0.94399103  1
  C  C26  1  0.50000000  0.44733104  0.27778816  1
  C  C27  1  0.50000000  0.45048056  0.61098271  1
  C  C28  1  0.50000000  0.45024942  0.94448668  1
  C  C29  1  0.50000000  0.51307402  0.27746193  1
  C  C30  1  0.50000000  0.51708118  0.61090359  1
  C  C31  1  0.50000000  0.51735003  0.94506054  1
  C  C32  1  0.50000000  0.57868271  0.27633403  1
  C  C33  1  0.50000000  0.58345844  0.61223567  1
  C  C34  1  0.50000000  0.58406953  0.94302618  1
  C  C35  1  0.50000000  0.65080653  0.61474506  1
  C  C36  1  0.50000000  0.65130594  0.93975327  1
  C  C37  1  0.50000000  0.71725231  0.27645426  1
  C  C38  1  0.50000000  0.71694927  0.61336305  1
  C  C39  1  0.50000000  0.71772377  0.93907082  1
  C  C40  1  0.50000000  0.28291606  0.30751142  1
  C  C41  1  0.50000000  0.28563813  0.64075667  1
  C  C42  1  0.50000000  0.28485322  0.97198408  1
  C  C43  1  0.50000000  0.34822950  0.30570944  1
  C  C44  1  0.50000000  0.35105556  0.63921329  1
  C  C45  1  0.50000000  0.35031892  0.97170734  1
  C  C46  1  0.50000000  0.41450624  0.30567260  1
  C  C47  1  0.50000000  0.41747812  0.63886671  1
  C  C48  1  0.50000000  0.41685047  0.97198690  1
  C  C49  1  0.50000000  0.48028517  0.30579135  1
  C  C50  1  0.50000000  0.48384176  0.63875501  1
  C  C51  1  0.50000000  0.48344849  0.97251524  1
  C  C52  1  0.50000000  0.54602808  0.30417524  1
  C  C53  1  0.50000000  0.55000513  0.63928627  1
  C  C54  1  0.50000000  0.55062117  0.97284653  1
  C  C55  1  0.50000000  0.61676888  0.64037461  1
  C  C56  1  0.50000000  0.61866115  0.96491445  1
  C  C57  1  0.50000000  0.68622480  0.30863689  1
  C  C58  1  0.50000000  0.68384852  0.64173892  1
  C  C59  1  0.50000000  0.68529489  0.96868180  1
  C  C60  1  0.50000000  0.28428434  0.02510298  1
  C  C61  1  0.50000000  0.28321480  0.36077567  1
  C  C62  1  0.50000000  0.28579755  0.69378885  1
  C  C63  1  0.50000000  0.34967843  0.02724117  1
  C  C64  1  0.50000000  0.34861675  0.36145087  1
  C  C65  1  0.50000000  0.35121930  0.69460095  1
  C  C66  1  0.50000000  0.41608490  0.02756022  1
  C  C67  1  0.50000000  0.41490249  0.36127745  1
  C  C68  1  0.50000000  0.41757927  0.69444709  1
  C  C69  1  0.50000000  0.48237224  0.02772498  1
  C  C70  1  0.50000000  0.48071439  0.36091641  1
  C  C71  1  0.50000000  0.48381643  0.69418890  1
  C  C72  1  0.50000000  0.54905496  0.02908104  1
  C  C73  1  0.50000000  0.54602632  0.35907660  1
  C  C74  1  0.50000000  0.54994059  0.69458145  1
  C  C75  1  0.50000000  0.61652070  0.69530814  1
  C  C76  1  0.50000000  0.68666958  0.02222107  1
  C  C77  1  0.50000000  0.68655683  0.36165859  1
  C  C78  1  0.50000000  0.68342667  0.69588581  1
  C  C79  1  0.50000000  0.31635585  0.05451882  1
  C  C80  1  0.50000000  0.31574508  0.38948933  1
  C  C81  1  0.50000000  0.31822124  0.72219573  1
  C  C82  1  0.50000000  0.38272997  0.05540525  1
  C  C83  1  0.50000000  0.38201697  0.38937628  1
  C  C84  1  0.50000000  0.38452750  0.72238959  1
  C  C85  1  0.50000000  0.44888409  0.05542922  1
  C  C86  1  0.50000000  0.44798152  0.38905328  1
  C  C87  1  0.50000000  0.45065294  0.72217780  1
  C  C88  1  0.50000000  0.51530441  0.05592141  1
  C  C89  1  0.50000000  0.51404207  0.38840096  1
  C  C90  1  0.50000000  0.51685310  0.72225505  1
  C  C91  1  0.50000000  0.57954997  0.06196458  1
  C  C92  1  0.50000000  0.57857137  0.38561971  1
  C  C93  1  0.50000000  0.58313145  0.72249795  1
  C  C94  1  0.50000000  0.64981624  0.72264596  1
  C  C95  1  0.50000000  0.71787475  0.05329338  1
  C  C96  1  0.50000000  0.71775620  0.39338016  1
  C  C97  1  0.50000000  0.71629390  0.72383974  1
  C  C98  1  0.50000000  0.31571882  0.11051541  1
  C  C99  1  0.50000000  0.31637317  0.44548463  1
  C  C100  1  0.50000000  0.31821944  0.77782266  1
  C  C101  1  0.50000000  0.38199482  0.11063187  1
  C  C102  1  0.50000000  0.38274127  0.44460882  1
  C  C103  1  0.50000000  0.38453052  0.77762467  1
  C  C104  1  0.50000000  0.44797536  0.11095424  1
  C  C105  1  0.50000000  0.44889512  0.44457103  1
  C  C106  1  0.50000000  0.45066213  0.77779244  1
  C  C107  1  0.50000000  0.51402614  0.11158408  1
  C  C108  1  0.50000000  0.51532076  0.44410438  1
  C  C109  1  0.50000000  0.51685059  0.77772482  1
  C  C110  1  0.50000000  0.57855578  0.11435441  1
  C  C111  1  0.50000000  0.57957644  0.43801261  1
  C  C112  1  0.50000000  0.58312799  0.77750808  1
  C  C113  1  0.50000000  0.64981317  0.77734333  1
  C  C114  1  0.50000000  0.71773573  0.10659555  1
  C  C115  1  0.50000000  0.71790521  0.44667948  1
  C  C116  1  0.50000000  0.71630213  0.77615232  1
  C  C117  1  0.50000000  0.28320373  0.13925609  1
  C  C118  1  0.50000000  0.28429746  0.47490561  1
  C  C119  1  0.50000000  0.28579733  0.80621939  1
  C  C120  1  0.50000000  0.34858359  0.13852547  1
  C  C121  1  0.50000000  0.34968909  0.47277726  1
  C  C122  1  0.50000000  0.35122714  0.80540943  1
  C  C123  1  0.50000000  0.41488635  0.13872986  1
  C  C124  1  0.50000000  0.41609686  0.47244579  1
  C  C125  1  0.50000000  0.41758910  0.80556104  1
  C  C126  1  0.50000000  0.48071062  0.13909602  1
  C  C127  1  0.50000000  0.48238272  0.47228864  1
  C  C128  1  0.50000000  0.48381535  0.80581270  1
  C  C129  1  0.50000000  0.54602764  0.14092936  1
  C  C130  1  0.50000000  0.54907674  0.47091967  1
  C  C131  1  0.50000000  0.54994102  0.80541301  1
  C  C132  1  0.50000000  0.61651869  0.80468657  1
  C  C133  1  0.50000000  0.68653950  0.13832858  1
  C  C134  1  0.50000000  0.68670414  0.47777678  1
  C  C135  1  0.50000000  0.68342608  0.80410854  1
  C  C136  1  0.50000000  0.28290963  0.19250888  1
  C  C137  1  0.50000000  0.28485120  0.52802802  1
  C  C138  1  0.50000000  0.28564836  0.85926085  1
  C  C139  1  0.50000000  0.34824407  0.19429985  1
  C  C140  1  0.50000000  0.35031996  0.52831620  1
  C  C141  1  0.50000000  0.35106239  0.86079715  1
  C  C142  1  0.50000000  0.41450316  0.19434958  1
  C  C143  1  0.50000000  0.41683990  0.52799901  1
  C  C144  1  0.50000000  0.41747228  0.86114069  1
  C  C145  1  0.50000000  0.48028289  0.19421201  1
  C  C146  1  0.50000000  0.48345155  0.52748630  1
  C  C147  1  0.50000000  0.48383818  0.86122592  1
  C  C148  1  0.50000000  0.54603960  0.19585514  1
  C  C149  1  0.50000000  0.55062862  0.52713625  1
  C  C150  1  0.50000000  0.55000735  0.86070326  1
  C  C151  1  0.50000000  0.61867934  0.53508326  1
  C  C152  1  0.50000000  0.61676821  0.85960584  1
  C  C153  1  0.50000000  0.68620057  0.19134575  1
  C  C154  1  0.50000000  0.68533295  0.53131792  1
  C  C155  1  0.50000000  0.68384801  0.85826282  1
  H  H156  1  0.50000000  0.74352091  0.20449747  1
  H  H157  1  0.50000000  0.74370974  0.54121117  1
  H  H158  1  0.50000000  0.74248801  0.86597058  1
  H  H159  1  0.50000000  0.74355734  0.29538252  1
  H  H160  1  0.50000000  0.74247724  0.63405555  1
  H  H161  1  0.50000000  0.74365876  0.95884949  1
  H  H162  1  0.50000000  0.25684350  0.28807972  1
  H  H163  1  0.50000000  0.25974493  0.62100374  1
  H  H164  1  0.50000000  0.25918428  0.95157782  1
  H  H165  1  0.50000000  0.25818080  0.04446119  1
  H  H166  1  0.50000000  0.25734129  0.38079642  1
  H  H167  1  0.50000000  0.26002588  0.71383149  1
  H  H168  1  0.50000000  0.74427754  0.03461940  1
  H  H169  1  0.50000000  0.74401982  0.37435048  1
  H  H170  1  0.50000000  0.74194870  0.70352067  1
  H  H171  1  0.50000000  0.74401396  0.12557498  1
  H  H172  1  0.50000000  0.74432006  0.46532832  1
  H  H173  1  0.50000000  0.74196276  0.79646457  1
  H  H174  1  0.50000000  0.25735411  0.11921833  1
  H  H175  1  0.50000000  0.25822892  0.45549036  1
  H  H176  1  0.50000000  0.26001295  0.78621389  1
  H  H177  1  0.50000000  0.25683440  0.21193241  1
  H  H178  1  0.50000000  0.25920672  0.54849550  1
  H  H179  1  0.50000000  0.25976296  0.87901186  1
  H  H180  1  0.50000000  0.60430935  0.20350189  1
  H  H181  1  0.50000000  0.60429681  0.29656263  1
  H  H182  1  0.50000000  0.62225732  0.00542107  1
  H  H183  1  0.50000000  0.65989773  0.28974454  1
  H  H184  1  0.50000000  0.66130806  0.04335669  1
  H  H185  1  0.50000000  0.66041683  0.38101729  1
  H  H186  1  0.50000000  0.60664057  0.04888631  1
  H  H187  1  0.50000000  0.60410763  0.36510590  1
  H  H188  1  0.50000000  0.60409086  0.13483983  1
  H  H189  1  0.50000000  0.60666660  0.45111546  1
  H  H190  1  0.50000000  0.66040104  0.11896703  1
  H  H191  1  0.50000000  0.66133472  0.45665140  1
  H  H192  1  0.50000000  0.62227402  0.49457901  1
  H  H193  1  0.50000000  0.65988494  0.21028897  1
