# generated using pymatgen
data_H20C87
_symmetry_space_group_name_H-M   'P 1'
_cell_length_a   10.00000000
_cell_length_b   41.10890000
_cell_length_c   25.84945723
_cell_angle_alpha   90.00000000
_cell_angle_beta   90.00000000
_cell_angle_gamma   90.00000000
_symmetry_Int_Tables_number   1
_chemical_formula_structural   H20C87
_chemical_formula_sum   'H40 C174'
_cell_volume   10626.42752353
_cell_formula_units_Z   2
loop_
 _symmetry_equiv_pos_site_id
 _symmetry_equiv_pos_as_xyz
  1  'x, y, z'
loop_
 _atom_site_type_symbol
 _atom_site_label
 _atom_site_symmetry_multiplicity
 _atom_site_fract_x
 _atom_site_fract_y
 _atom_site_fract_z
 _atom_site_occupancy
  C  C0  1  0.50000000  0.28983273  0.30532332  1
  C  C1  1  0.50000000  0.28959844  0.63872565  1
  C  C2  1  0.50000000  0.28968189  0.97215548  1
  C  C3  1  0.50000000  0.34993694  0.30569244  1
  C  C4  1  0.50000000  0.34968007  0.63905031  1
  C  C5  1  0.50000000  0.34976757  0.97240519  1
  C  C6  1  0.50000000  0.40995251  0.30556068  1
  C  C7  1  0.50000000  0.40963023  0.63895488  1
  C  C8  1  0.50000000  0.40974180  0.97210040  1
  C  C9  1  0.50000000  0.47014816  0.30574559  1
  C  C10  1  0.50000000  0.46975967  0.63913116  1
  C  C11  1  0.50000000  0.46983874  0.97191527  1
  C  C12  1  0.50000000  0.52936033  0.30706088  1
  C  C13  1  0.50000000  0.52980274  0.63946671  1
  C  C14  1  0.50000000  0.52970075  0.97173867  1
  C  C15  1  0.50000000  0.58990796  0.63992332  1
  C  C16  1  0.50000000  0.59038714  0.96868289  1
  C  C17  1  0.50000000  0.65029970  0.64010497  1
  C  C18  1  0.50000000  0.65022540  0.96852819  1
  C  C19  1  0.50000000  0.71079124  0.30776504  1
  C  C20  1  0.50000000  0.71033984  0.63985373  1
  C  C21  1  0.50000000  0.71110992  0.97113631  1
  C  C22  1  0.50000000  0.28973835  0.02801793  1
  C  C23  1  0.50000000  0.28979812  0.36116384  1
  C  C24  1  0.50000000  0.28957635  0.69462008  1
  C  C25  1  0.50000000  0.34982725  0.02764610  1
  C  C26  1  0.50000000  0.34989206  0.36093703  1
  C  C27  1  0.50000000  0.34966428  0.69430465  1
  C  C28  1  0.50000000  0.40979867  0.02768367  1
  C  C29  1  0.50000000  0.40992209  0.36121844  1
  C  C30  1  0.50000000  0.40960470  0.69447844  1
  C  C31  1  0.50000000  0.46986379  0.02736976  1
  C  C32  1  0.50000000  0.47015907  0.36148361  1
  C  C33  1  0.50000000  0.46970015  0.69457299  1
  C  C34  1  0.50000000  0.52898868  0.02566770  1
  C  C35  1  0.50000000  0.52932692  0.36037442  1
  C  C36  1  0.50000000  0.52972391  0.69455626  1
  C  C37  1  0.50000000  0.58986551  0.69513090  1
  C  C38  1  0.50000000  0.65020646  0.69514392  1
  C  C39  1  0.50000000  0.71225148  0.02464441  1
  C  C40  1  0.50000000  0.71109871  0.36079108  1
  C  C41  1  0.50000000  0.71039532  0.69478926  1
  C  C42  1  0.50000000  0.26038694  0.05681961  1
  C  C43  1  0.50000000  0.26042700  0.38992428  1
  C  C44  1  0.50000000  0.26021956  0.72345262  1
  C  C45  1  0.50000000  0.31971969  0.05560201  1
  C  C46  1  0.50000000  0.31973909  0.38881831  1
  C  C47  1  0.50000000  0.31953711  0.72224091  1
  C  C48  1  0.50000000  0.37988666  0.05551563  1
  C  C49  1  0.50000000  0.37992066  0.38893040  1
  C  C50  1  0.50000000  0.37967785  0.72221618  1
  C  C51  1  0.50000000  0.43984908  0.05552120  1
  C  C52  1  0.50000000  0.43989771  0.38920744  1
  C  C53  1  0.50000000  0.43964877  0.72237035  1
  C  C54  1  0.50000000  0.50002923  0.05459265  1
  C  C55  1  0.50000000  0.50004908  0.38924616  1
  C  C56  1  0.50000000  0.49965100  0.72227042  1
  C  C57  1  0.50000000  0.55980029  0.72241365  1
  C  C58  1  0.50000000  0.61999565  0.72244740  1
  C  C59  1  0.50000000  0.68028970  0.72241680  1
  C  C60  1  0.50000000  0.74049640  0.05554659  1
  C  C61  1  0.50000000  0.73989600  0.39120961  1
  C  C62  1  0.50000000  0.73998393  0.72357904  1
  C  C63  1  0.50000000  0.26043516  0.11001730  1
  C  C64  1  0.50000000  0.26036864  0.44311432  1
  C  C65  1  0.50000000  0.26022286  0.77668248  1
  C  C66  1  0.50000000  0.31977559  0.11116440  1
  C  C67  1  0.50000000  0.31967716  0.44439403  1
  C  C68  1  0.50000000  0.31954094  0.77781500  1
  C  C69  1  0.50000000  0.37996736  0.11107945  1
  C  C70  1  0.50000000  0.37983910  0.44449683  1
  C  C71  1  0.50000000  0.37968184  0.77780044  1
  C  C72  1  0.50000000  0.43994493  0.11085030  1
  C  C73  1  0.50000000  0.43979693  0.44452238  1
  C  C74  1  0.50000000  0.43965060  0.77760999  1
  C  C75  1  0.50000000  0.50010704  0.11081607  1
  C  C76  1  0.50000000  0.49994796  0.44541671  1
  C  C77  1  0.50000000  0.49965047  0.77766942  1
  C  C78  1  0.50000000  0.55979579  0.77749885  1
  C  C79  1  0.50000000  0.61998626  0.77747954  1
  C  C80  1  0.50000000  0.68027338  0.77751089  1
  C  C81  1  0.50000000  0.73972216  0.10881965  1
  C  C82  1  0.50000000  0.74059387  0.44446648  1
  C  C83  1  0.50000000  0.73996876  0.77644440  1
  C  C84  1  0.50000000  0.28982136  0.13876333  1
  C  C85  1  0.50000000  0.28969520  0.47198698  1
  C  C86  1  0.50000000  0.28958787  0.80546696  1
  C  C87  1  0.50000000  0.34992961  0.13905191  1
  C  C88  1  0.50000000  0.34978151  0.47236300  1
  C  C89  1  0.50000000  0.34967400  0.80572999  1
  C  C90  1  0.50000000  0.40996317  0.13880634  1
  C  C91  1  0.50000000  0.40974942  0.47234554  1
  C  C92  1  0.50000000  0.40961368  0.80552564  1
  C  C93  1  0.50000000  0.47019345  0.13863319  1
  C  C94  1  0.50000000  0.46980406  0.47267305  1
  C  C95  1  0.50000000  0.46970462  0.80539248  1
  C  C96  1  0.50000000  0.52937487  0.13978728  1
  C  C97  1  0.50000000  0.52893820  0.47427094  1
  C  C98  1  0.50000000  0.52972100  0.80537054  1
  C  C99  1  0.50000000  0.58985361  0.80479149  1
  C  C100  1  0.50000000  0.65019149  0.80478447  1
  C  C101  1  0.50000000  0.71093537  0.13934295  1
  C  C102  1  0.50000000  0.71231634  0.47532197  1
  C  C103  1  0.50000000  0.71036173  0.80518085  1
  C  C104  1  0.50000000  0.28985024  0.19459565  1
  C  C105  1  0.50000000  0.28964268  0.52786388  1
  C  C106  1  0.50000000  0.28961194  0.86135740  1
  C  C107  1  0.50000000  0.34995655  0.19428510  1
  C  C108  1  0.50000000  0.34973224  0.52761747  1
  C  C109  1  0.50000000  0.34969976  0.86097671  1
  C  C110  1  0.50000000  0.40997811  0.19446311  1
  C  C111  1  0.50000000  0.40970406  0.52792813  1
  C  C112  1  0.50000000  0.40965057  0.86105392  1
  C  C113  1  0.50000000  0.47017593  0.19434168  1
  C  C114  1  0.50000000  0.46981511  0.52810860  1
  C  C115  1  0.50000000  0.46976393  0.86083613  1
  C  C116  1  0.50000000  0.52938044  0.19311941  1
  C  C117  1  0.50000000  0.52969816  0.52819300  1
  C  C118  1  0.50000000  0.52978649  0.86046173  1
  C  C119  1  0.50000000  0.59039475  0.53118891  1
  C  C120  1  0.50000000  0.58989421  0.85998920  1
  C  C121  1  0.50000000  0.65024037  0.53137425  1
  C  C122  1  0.50000000  0.65028902  0.85981431  1
  C  C123  1  0.50000000  0.71068864  0.19238179  1
  C  C124  1  0.50000000  0.71112541  0.52881534  1
  C  C125  1  0.50000000  0.71030955  0.86011311  1
  C  C126  1  0.50000000  0.26047312  0.22335099  1
  C  C127  1  0.50000000  0.26027872  0.55667572  1
  C  C128  1  0.50000000  0.26026473  0.89018807  1
  C  C129  1  0.50000000  0.31981781  0.22219080  1
  C  C130  1  0.50000000  0.31959441  0.55552197  1
  C  C131  1  0.50000000  0.31958971  0.88894028  1
  C  C132  1  0.50000000  0.38002604  0.22220749  1
  C  C133  1  0.50000000  0.37973586  0.55559509  1
  C  C134  1  0.50000000  0.37973169  0.88886539  1
  C  C135  1  0.50000000  0.44002599  0.22235433  1
  C  C136  1  0.50000000  0.43968720  0.55592993  1
  C  C137  1  0.50000000  0.43970590  0.88886805  1
  C  C138  1  0.50000000  0.50010681  0.22204743  1
  C  C139  1  0.50000000  0.49969511  0.55616419  1
  C  C140  1  0.50000000  0.49969138  0.88834343  1
  C  C141  1  0.50000000  0.56044898  0.55652098  1
  C  C142  1  0.50000000  0.55996735  0.88793113  1
  C  C143  1  0.50000000  0.62020915  0.55798383  1
  C  C144  1  0.50000000  0.62010461  0.88678183  1
  C  C145  1  0.50000000  0.68005959  0.55665117  1
  C  C146  1  0.50000000  0.68035852  0.88750994  1
  C  C147  1  0.50000000  0.73920785  0.22350095  1
  C  C148  1  0.50000000  0.74050946  0.55861430  1
  C  C149  1  0.50000000  0.74021557  0.88875863  1
  C  C150  1  0.50000000  0.26046638  0.27651872  1
  C  C151  1  0.50000000  0.26026187  0.60989391  1
  C  C152  1  0.50000000  0.26029434  0.94341394  1
  C  C153  1  0.50000000  0.31980872  0.27775879  1
  C  C154  1  0.50000000  0.31956591  0.61110109  1
  C  C155  1  0.50000000  0.31962828  0.94450649  1
  C  C156  1  0.50000000  0.38001372  0.27779292  1
  C  C157  1  0.50000000  0.37970754  0.61115007  1
  C  C158  1  0.50000000  0.37976969  0.94442468  1
  C  C159  1  0.50000000  0.44000574  0.27767234  1
  C  C160  1  0.50000000  0.43968592  0.61113570  1
  C  C161  1  0.50000000  0.43971616  0.94408976  1
  C  C162  1  0.50000000  0.50009280  0.27806740  1
  C  C163  1  0.50000000  0.49969625  0.61161997  1
  C  C164  1  0.50000000  0.49969745  0.94380840  1
  C  C165  1  0.50000000  0.55998240  0.61197681  1
  C  C166  1  0.50000000  0.56043652  0.94338391  1
  C  C167  1  0.50000000  0.62011532  0.61312524  1
  C  C168  1  0.50000000  0.62020181  0.94190887  1
  C  C169  1  0.50000000  0.68037873  0.61243557  1
  C  C170  1  0.50000000  0.68004872  0.94328480  1
  C  C171  1  0.50000000  0.73924350  0.27644117  1
  C  C172  1  0.50000000  0.74023726  0.61117652  1
  C  C173  1  0.50000000  0.74050343  0.94132540  1
  H  H174  1  0.50000000  0.23696134  0.03682164  1
  H  H175  1  0.50000000  0.23698922  0.37000991  1
  H  H176  1  0.50000000  0.23676020  0.70356110  1
  H  H177  1  0.50000000  0.76444985  0.03698339  1
  H  H178  1  0.50000000  0.76336207  0.37113787  1
  H  H179  1  0.50000000  0.76340262  0.70362263  1
  H  H180  1  0.50000000  0.23703343  0.13006143  1
  H  H181  1  0.50000000  0.23688048  0.46289302  1
  H  H182  1  0.50000000  0.23678660  0.79666374  1
  H  H183  1  0.50000000  0.76320620  0.12882237  1
  H  H184  1  0.50000000  0.76455511  0.46295689  1
  H  H185  1  0.50000000  0.76335626  0.79651695  1
  H  H186  1  0.50000000  0.23704822  0.20337386  1
  H  H187  1  0.50000000  0.23679991  0.53686077  1
  H  H188  1  0.50000000  0.23683623  0.87019330  1
  H  H189  1  0.50000000  0.76291364  0.20413108  1
  H  H190  1  0.50000000  0.76388930  0.53851200  1
  H  H191  1  0.50000000  0.76344648  0.86822313  1
  H  H192  1  0.50000000  0.23701690  0.29640315  1
  H  H193  1  0.50000000  0.23680692  0.62979663  1
  H  H194  1  0.50000000  0.23687502  0.96344025  1
  H  H195  1  0.50000000  0.76301266  0.29558076  1
  H  H196  1  0.50000000  0.76350541  0.63159472  1
  H  H197  1  0.50000000  0.76390074  0.96137043  1
  H  H198  1  0.50000000  0.55284067  0.28725830  1
  H  H199  1  0.50000000  0.59156664  0.01093288  1
  H  H200  1  0.50000000  0.64899367  0.01078644  1
  H  H201  1  0.50000000  0.68700303  0.28865748  1
  H  H202  1  0.50000000  0.55207984  0.04634008  1
  H  H203  1  0.50000000  0.55279238  0.38028158  1
  H  H204  1  0.50000000  0.68908081  0.04529431  1
  H  H205  1  0.50000000  0.68741478  0.38032253  1
  H  H206  1  0.50000000  0.55287480  0.12001109  1
  H  H207  1  0.50000000  0.55198124  0.45342363  1
  H  H208  1  0.50000000  0.68721628  0.11994733  1
  H  H209  1  0.50000000  0.68912897  0.45473563  1
  H  H210  1  0.50000000  0.55281089  0.21307721  1
  H  H211  1  0.50000000  0.59155082  0.48890478  1
  H  H212  1  0.50000000  0.64904651  0.48908646  1
  H  H213  1  0.50000000  0.68698872  0.21180330  1
