# generated using pymatgen
data_HC6
_symmetry_space_group_name_H-M   'P 1'
_cell_length_a   20.00000000
_cell_length_b   37.22700000
_cell_length_c   25.88424975
_cell_angle_alpha   90.00000000
_cell_angle_beta   90.00000000
_cell_angle_gamma   90.00000000
_symmetry_Int_Tables_number   1
_chemical_formula_structural   HC6
_chemical_formula_sum   'H26 C156'
_cell_volume   19271.85930623
_cell_formula_units_Z   26
loop_
 _symmetry_equiv_pos_site_id
 _symmetry_equiv_pos_as_xyz
  1  'x, y, z'
loop_
 _atom_site_type_symbol
 _atom_site_label
 _atom_site_symmetry_multiplicity
 _atom_site_fract_x
 _atom_site_fract_y
 _atom_site_fract_z
 _atom_site_occupancy
  C  C0  1  0.50000000  0.31692853  0.22201205  1
  C  C1  1  0.50000000  0.31787936  0.55565962  1
  C  C2  1  0.50000000  0.31798304  0.88831509  1
  C  C3  1  0.50000000  0.38322373  0.22229255  1
  C  C4  1  0.50000000  0.38429232  0.55575072  1
  C  C5  1  0.50000000  0.38443790  0.88884396  1
  C  C6  1  0.50000000  0.44908098  0.22225901  1
  C  C7  1  0.50000000  0.45052266  0.55567956  1
  C  C8  1  0.50000000  0.45065137  0.88890159  1
  C  C9  1  0.50000000  0.51501862  0.22209787  1
  C  C10  1  0.50000000  0.51708928  0.55523655  1
  C  C11  1  0.50000000  0.51702213  0.88901624  1
  C  C12  1  0.50000000  0.58079544  0.22245890  1
  C  C13  1  0.50000000  0.58430300  0.55458175  1
  C  C14  1  0.50000000  0.58367163  0.88936944  1
  C  C15  1  0.50000000  0.64640305  0.22343660  1
  C  C16  1  0.50000000  0.65149403  0.55605446  1
  C  C17  1  0.50000000  0.65015063  0.88846178  1
  C  C18  1  0.50000000  0.71816372  0.56332657  1
  C  C19  1  0.50000000  0.71654953  0.88385352  1
  C  C20  1  0.50000000  0.31693485  0.27810063  1
  C  C21  1  0.50000000  0.31801539  0.61165216  1
  C  C22  1  0.50000000  0.31784462  0.94432160  1
  C  C23  1  0.50000000  0.38323184  0.27774356  1
  C  C24  1  0.50000000  0.38446115  0.61112450  1
  C  C25  1  0.50000000  0.38425951  0.94423900  1
  C  C26  1  0.50000000  0.44908687  0.27773487  1
  C  C27  1  0.50000000  0.45066979  0.61108047  1
  C  C28  1  0.50000000  0.45048960  0.94430861  1
  C  C29  1  0.50000000  0.51502836  0.27786426  1
  C  C30  1  0.50000000  0.51703944  0.61096248  1
  C  C31  1  0.50000000  0.51705969  0.94473890  1
  C  C32  1  0.50000000  0.58080915  0.27744924  1
  C  C33  1  0.50000000  0.58369688  0.61061112  1
  C  C34  1  0.50000000  0.58425145  0.94538147  1
  C  C35  1  0.50000000  0.64642015  0.27635640  1
  C  C36  1  0.50000000  0.65016588  0.61158718  1
  C  C37  1  0.50000000  0.65144344  0.94398422  1
  C  C38  1  0.50000000  0.71653578  0.61630354  1
  C  C39  1  0.50000000  0.71811922  0.93682125  1
  C  C40  1  0.50000000  0.28472652  0.30702313  1
  C  C41  1  0.50000000  0.28575246  0.64022953  1
  C  C42  1  0.50000000  0.28549730  0.97281254  1
  C  C43  1  0.50000000  0.35000097  0.30565861  1
  C  C44  1  0.50000000  0.35117165  0.63903471  1
  C  C45  1  0.50000000  0.35084940  0.97194220  1
  C  C46  1  0.50000000  0.41619300  0.30559188  1
  C  C47  1  0.50000000  0.41755801  0.63878397  1
  C  C48  1  0.50000000  0.41722040  0.97198609  1
  C  C49  1  0.50000000  0.48219404  0.30566388  1
  C  C50  1  0.50000000  0.48403116  0.63874960  1
  C  C51  1  0.50000000  0.48371302  0.97219489  1
  C  C52  1  0.50000000  0.54789660  0.30569562  1
  C  C53  1  0.50000000  0.55038909  0.63848237  1
  C  C54  1  0.50000000  0.55026396  0.97264703  1
  C  C55  1  0.50000000  0.61381375  0.30414637  1
  C  C56  1  0.50000000  0.61651853  0.63874436  1
  C  C57  1  0.50000000  0.61750889  0.97304447  1
  C  C58  1  0.50000000  0.68295448  0.64046206  1
  C  C59  1  0.50000000  0.68664957  0.96514737  1
  C  C60  1  0.50000000  0.28529610  0.02612605  1
  C  C61  1  0.50000000  0.28486623  0.36039511  1
  C  C62  1  0.50000000  0.28580665  0.69352444  1
  C  C63  1  0.50000000  0.35060270  0.02742788  1
  C  C64  1  0.50000000  0.35016466  0.36128245  1
  C  C65  1  0.50000000  0.35123415  0.69446854  1
  C  C66  1  0.50000000  0.41690225  0.02771438  1
  C  C67  1  0.50000000  0.41634263  0.36137318  1
  C  C68  1  0.50000000  0.41759490  0.69455172  1
  C  C69  1  0.50000000  0.48319747  0.02763505  1
  C  C70  1  0.50000000  0.48241454  0.36111712  1
  C  C71  1  0.50000000  0.48399738  0.69440531  1
  C  C72  1  0.50000000  0.54934788  0.02787650  1
  C  C73  1  0.50000000  0.54815090  0.36091692  1
  C  C74  1  0.50000000  0.55016751  0.69408402  1
  C  C75  1  0.50000000  0.61585041  0.02915392  1
  C  C76  1  0.50000000  0.61369788  0.35934415  1
  C  C77  1  0.50000000  0.61605449  0.69425831  1
  C  C78  1  0.50000000  0.68216151  0.69590002  1
  C  C79  1  0.50000000  0.31744219  0.05498249  1
  C  C80  1  0.50000000  0.31720532  0.38899531  1
  C  C81  1  0.50000000  0.31814916  0.72196581  1
  C  C82  1  0.50000000  0.38379869  0.05538947  1
  C  C83  1  0.50000000  0.38348847  0.38922892  1
  C  C84  1  0.50000000  0.38458368  0.72227687  1
  C  C85  1  0.50000000  0.44984024  0.05547057  1
  C  C86  1  0.50000000  0.44941679  0.38910140  1
  C  C87  1  0.50000000  0.45076465  0.72223354  1
  C  C88  1  0.50000000  0.51602791  0.05538067  1
  C  C89  1  0.50000000  0.51543819  0.38889188  1
  C  C90  1  0.50000000  0.51702752  0.72208330  1
  C  C91  1  0.50000000  0.58228478  0.05601405  1
  C  C92  1  0.50000000  0.58148331  0.38833572  1
  C  C93  1  0.50000000  0.58320479  0.72204694  1
  C  C94  1  0.50000000  0.64659895  0.06109809  1
  C  C95  1  0.50000000  0.64613955  0.38613407  1
  C  C96  1  0.50000000  0.64906109  0.72249765  1
  C  C97  1  0.50000000  0.71450351  0.72372153  1
  C  C98  1  0.50000000  0.31716304  0.11109190  1
  C  C99  1  0.50000000  0.31746684  0.44508869  1
  C  C100  1  0.50000000  0.31814883  0.77795874  1
  C  C101  1  0.50000000  0.38345072  0.11080377  1
  C  C102  1  0.50000000  0.38383172  0.44462078  1
  C  C103  1  0.50000000  0.38457275  0.77769244  1
  C  C104  1  0.50000000  0.44938530  0.11089508  1
  C  C105  1  0.50000000  0.44987178  0.44451612  1
  C  C106  1  0.50000000  0.45076324  0.77775028  1
  C  C107  1  0.50000000  0.51540751  0.11108004  1
  C  C108  1  0.50000000  0.51606697  0.44459167  1
  C  C109  1  0.50000000  0.51701905  0.77789583  1
  C  C110  1  0.50000000  0.58144537  0.11159212  1
  C  C111  1  0.50000000  0.58235200  0.44392968  1
  C  C112  1  0.50000000  0.58319688  0.77796573  1
  C  C113  1  0.50000000  0.64611281  0.11367416  1
  C  C114  1  0.50000000  0.64669164  0.43872724  1
  C  C115  1  0.50000000  0.64905383  0.77757920  1
  C  C116  1  0.50000000  0.71449317  0.77647924  1
  C  C117  1  0.50000000  0.28483639  0.13976556  1
  C  C118  1  0.50000000  0.28529675  0.47391532  1
  C  C119  1  0.50000000  0.28581544  0.80639300  1
  C  C120  1  0.50000000  0.35014139  0.13876564  1
  C  C121  1  0.50000000  0.35063438  0.47258808  1
  C  C122  1  0.50000000  0.35121821  0.80548695  1
  C  C123  1  0.50000000  0.41631324  0.13864160  1
  C  C124  1  0.50000000  0.41693553  0.47229111  1
  C  C125  1  0.50000000  0.41758440  0.80541942  1
  C  C126  1  0.50000000  0.48238689  0.13885662  1
  C  C127  1  0.50000000  0.48323063  0.47233341  1
  C  C128  1  0.50000000  0.48398407  0.80556901  1
  C  C129  1  0.50000000  0.54812662  0.13903633  1
  C  C130  1  0.50000000  0.54940143  0.47208622  1
  C  C131  1  0.50000000  0.55015055  0.80591032  1
  C  C132  1  0.50000000  0.61368416  0.14052651  1
  C  C133  1  0.50000000  0.61594941  0.47076468  1
  C  C134  1  0.50000000  0.61604029  0.80577498  1
  C  C135  1  0.50000000  0.68214056  0.80421610  1
  C  C136  1  0.50000000  0.28470827  0.19314250  1
  C  C137  1  0.50000000  0.28551129  0.52723689  1
  C  C138  1  0.50000000  0.28574047  0.85967920  1
  C  C139  1  0.50000000  0.34998903  0.19438783  1
  C  C140  1  0.50000000  0.35088034  0.52805004  1
  C  C141  1  0.50000000  0.35114299  0.86092951  1
  C  C142  1  0.50000000  0.41617550  0.19441939  1
  C  C143  1  0.50000000  0.41725470  0.52801641  1
  C  C144  1  0.50000000  0.41754488  0.86118694  1
  C  C145  1  0.50000000  0.48218108  0.19430624  1
  C  C146  1  0.50000000  0.48374341  0.52777958  1
  C  C147  1  0.50000000  0.48400595  0.86121240  1
  C  C148  1  0.50000000  0.54787657  0.19424694  1
  C  C149  1  0.50000000  0.55030576  0.52732681  1
  C  C150  1  0.50000000  0.55036926  0.86150534  1
  C  C151  1  0.50000000  0.61378642  0.19571992  1
  C  C152  1  0.50000000  0.61757814  0.52692139  1
  C  C153  1  0.50000000  0.61650701  0.86127309  1
  C  C154  1  0.50000000  0.68671036  0.53491599  1
  C  C155  1  0.50000000  0.68296549  0.85964280  1
  H  H156  1  0.50000000  0.74394948  0.54302939  1
  H  H157  1  0.50000000  0.74149660  0.86197067  1
  H  H158  1  0.50000000  0.74136212  0.63847865  1
  H  H159  1  0.50000000  0.74385398  0.95726376  1
  H  H160  1  0.50000000  0.25877604  0.28726464  1
  H  H161  1  0.50000000  0.25993070  0.62020916  1
  H  H162  1  0.50000000  0.25966057  0.95286313  1
  H  H163  1  0.50000000  0.25938372  0.04589526  1
  H  H164  1  0.50000000  0.25900541  0.38037377  1
  H  H165  1  0.50000000  0.25998534  0.71356189  1
  H  H166  1  0.50000000  0.74042281  0.70433485  1
  H  H167  1  0.50000000  0.74034419  0.79608006  1
  H  H168  1  0.50000000  0.25894062  0.11992580  1
  H  H169  1  0.50000000  0.25941285  0.45405028  1
  H  H170  1  0.50000000  0.25998057  0.78641668  1
  H  H171  1  0.50000000  0.25877527  0.21296603  1
  H  H172  1  0.50000000  0.25974238  0.54738025  1
  H  H173  1  0.50000000  0.25984851  0.87948767  1
  H  H174  1  0.50000000  0.67212987  0.20329408  1
  H  H175  1  0.50000000  0.67220081  0.29634157  1
  H  H176  1  0.50000000  0.69286253  0.00543555  1
  H  H177  1  0.50000000  0.67314642  0.04609746  1
  H  H178  1  0.50000000  0.67194136  0.36615639  1
  H  H179  1  0.50000000  0.67197570  0.13345875  1
  H  H180  1  0.50000000  0.67332614  0.45348463  1
  H  H181  1  0.50000000  0.69282982  0.49458678  1
