# generated using pymatgen
data_H14C87
_symmetry_space_group_name_H-M   'P 1'
_cell_length_a   10.00000000
_cell_length_b   41.10890000
_cell_length_c   25.86426181
_cell_angle_alpha   90.00000000
_cell_angle_beta   90.00000000
_cell_angle_gamma   90.00000000
_symmetry_Int_Tables_number   1
_chemical_formula_structural   H14C87
_chemical_formula_sum   'H28 C174'
_cell_volume   10632.51352435
_cell_formula_units_Z   2
loop_
 _symmetry_equiv_pos_site_id
 _symmetry_equiv_pos_as_xyz
  1  'x, y, z'
loop_
 _atom_site_type_symbol
 _atom_site_label
 _atom_site_symmetry_multiplicity
 _atom_site_fract_x
 _atom_site_fract_y
 _atom_site_fract_z
 _atom_site_occupancy
  C  C0  1  0.50000000  0.28938436  0.63869753  1
  C  C1  1  0.50000000  0.28944351  0.97002324  1
  C  C2  1  0.50000000  0.35015508  0.30708176  1
  C  C3  1  0.50000000  0.34990528  0.63924664  1
  C  C4  1  0.50000000  0.35020329  0.97175769  1
  C  C5  1  0.50000000  0.40923595  0.30579583  1
  C  C6  1  0.50000000  0.41004926  0.63929894  1
  C  C7  1  0.50000000  0.41000485  0.97175401  1
  C  C8  1  0.50000000  0.46915705  0.30561014  1
  C  C9  1  0.50000000  0.47025423  0.63899745  1
  C  C10  1  0.50000000  0.47007676  0.97177805  1
  C  C11  1  0.50000000  0.52893405  0.30576620  1
  C  C12  1  0.50000000  0.53050036  0.63879718  1
  C  C13  1  0.50000000  0.53030868  0.97209692  1
  C  C14  1  0.50000000  0.58837320  0.30574559  1
  C  C15  1  0.50000000  0.59068817  0.63848786  1
  C  C16  1  0.50000000  0.59063607  0.97260265  1
  C  C17  1  0.50000000  0.64800076  0.30411926  1
  C  C18  1  0.50000000  0.65058962  0.63876773  1
  C  C19  1  0.50000000  0.65154791  0.97310790  1
  C  C20  1  0.50000000  0.71072978  0.64045876  1
  C  C21  1  0.50000000  0.71407561  0.96508166  1
  C  C22  1  0.50000000  0.28958987  0.69489020  1
  C  C23  1  0.50000000  0.35104831  0.02588834  1
  C  C24  1  0.50000000  0.35026229  0.36054404  1
  C  C25  1  0.50000000  0.34993794  0.69449810  1
  C  C26  1  0.50000000  0.40998652  0.02711359  1
  C  C27  1  0.50000000  0.40935609  0.36146497  1
  C  C28  1  0.50000000  0.41004663  0.69459858  1
  C  C29  1  0.50000000  0.46987360  0.02745885  1
  C  C30  1  0.50000000  0.46930108  0.36151389  1
  C  C31  1  0.50000000  0.47024751  0.69463410  1
  C  C32  1  0.50000000  0.52987143  0.02758635  1
  C  C33  1  0.50000000  0.52914586  0.36127326  1
  C  C34  1  0.50000000  0.53043959  0.69443619  1
  C  C35  1  0.50000000  0.58983703  0.02781845  1
  C  C36  1  0.50000000  0.58866160  0.36096321  1
  C  C37  1  0.50000000  0.59042364  0.69408378  1
  C  C38  1  0.50000000  0.65015502  0.02922296  1
  C  C39  1  0.50000000  0.64794122  0.35926160  1
  C  C40  1  0.50000000  0.65013204  0.69425615  1
  C  C41  1  0.50000000  0.71002844  0.69590002  1
  C  C42  1  0.50000000  0.26036072  0.72337080  1
  C  C43  1  0.50000000  0.31961743  0.72230563  1
  C  C44  1  0.50000000  0.37982802  0.05450969  1
  C  C45  1  0.50000000  0.37951126  0.38917631  1
  C  C46  1  0.50000000  0.37994000  0.72213764  1
  C  C47  1  0.50000000  0.43991248  0.05516517  1
  C  C48  1  0.50000000  0.43959503  0.38936587  1
  C  C49  1  0.50000000  0.44025293  0.72228078  1
  C  C50  1  0.50000000  0.49968986  0.05535326  1
  C  C51  1  0.50000000  0.49930886  0.38933675  1
  C  C52  1  0.50000000  0.50034890  0.72226914  1
  C  C53  1  0.50000000  0.55961982  0.05530710  1
  C  C54  1  0.50000000  0.55905740  0.38901201  1
  C  C55  1  0.50000000  0.56037908  0.72210398  1
  C  C56  1  0.50000000  0.61968353  0.05597814  1
  C  C57  1  0.50000000  0.61884412  0.38836436  1
  C  C58  1  0.50000000  0.62033851  0.72203088  1
  C  C59  1  0.50000000  0.67799849  0.06139468  1
  C  C60  1  0.50000000  0.67736539  0.38591291  1
  C  C61  1  0.50000000  0.68003717  0.72247380  1
  C  C62  1  0.50000000  0.73936301  0.72367746  1
  C  C63  1  0.50000000  0.26038063  0.77673040  1
  C  C64  1  0.50000000  0.31962689  0.77770237  1
  C  C65  1  0.50000000  0.37946675  0.11088936  1
  C  C66  1  0.50000000  0.37986903  0.44554020  1
  C  C67  1  0.50000000  0.37994674  0.77785786  1
  C  C68  1  0.50000000  0.43957037  0.11067498  1
  C  C69  1  0.50000000  0.43993626  0.44487209  1
  C  C70  1  0.50000000  0.44025414  0.77771704  1
  C  C71  1  0.50000000  0.49927874  0.11074482  1
  C  C72  1  0.50000000  0.49971969  0.44470697  1
  C  C73  1  0.50000000  0.50034531  0.77772572  1
  C  C74  1  0.50000000  0.55903949  0.11096758  1
  C  C75  1  0.50000000  0.55964909  0.44467788  1
  C  C76  1  0.50000000  0.56037527  0.77788206  1
  C  C77  1  0.50000000  0.61882804  0.11158660  1
  C  C78  1  0.50000000  0.61971013  0.44398205  1
  C  C79  1  0.50000000  0.62033499  0.77795502  1
  C  C80  1  0.50000000  0.67737175  0.11397631  1
  C  C81  1  0.50000000  0.67802599  0.43848337  1
  C  C82  1  0.50000000  0.68002704  0.77754638  1
  C  C83  1  0.50000000  0.73934639  0.77644976  1
  C  C84  1  0.50000000  0.28961570  0.80512890  1
  C  C85  1  0.50000000  0.35023491  0.13959477  1
  C  C86  1  0.50000000  0.35106676  0.47409191  1
  C  C87  1  0.50000000  0.34994742  0.80550467  1
  C  C88  1  0.50000000  0.40933119  0.13858964  1
  C  C89  1  0.50000000  0.41001534  0.47292713  1
  C  C90  1  0.50000000  0.41004952  0.80540447  1
  C  C91  1  0.50000000  0.46927878  0.13852751  1
  C  C92  1  0.50000000  0.46989218  0.47257229  1
  C  C93  1  0.50000000  0.47024115  0.80536372  1
  C  C94  1  0.50000000  0.52913399  0.13874514  1
  C  C95  1  0.50000000  0.52990214  0.47240897  1
  C  C96  1  0.50000000  0.53043543  0.80555249  1
  C  C97  1  0.50000000  0.58864957  0.13900195  1
  C  C98  1  0.50000000  0.58986912  0.47215945  1
  C  C99  1  0.50000000  0.59041919  0.80589489  1
  C  C100  1  0.50000000  0.64794520  0.14064392  1
  C  C101  1  0.50000000  0.65019970  0.47073469  1
  C  C102  1  0.50000000  0.65012060  0.80575066  1
  C  C103  1  0.50000000  0.71000245  0.80414715  1
  C  C104  1  0.50000000  0.28947227  0.52989184  1
  C  C105  1  0.50000000  0.28940221  0.86127725  1
  C  C106  1  0.50000000  0.35014732  0.19306285  1
  C  C107  1  0.50000000  0.35020437  0.52823303  1
  C  C108  1  0.50000000  0.34991967  0.86075696  1
  C  C109  1  0.50000000  0.40922533  0.19427050  1
  C  C110  1  0.50000000  0.41000915  0.52828521  1
  C  C111  1  0.50000000  0.41005716  0.86071615  1
  C  C112  1  0.50000000  0.46916321  0.19437495  1
  C  C113  1  0.50000000  0.47008145  0.52825565  1
  C  C114  1  0.50000000  0.47024833  0.86100818  1
  C  C115  1  0.50000000  0.52892820  0.19424428  1
  C  C116  1  0.50000000  0.53030990  0.52786911  1
  C  C117  1  0.50000000  0.53049308  0.86119495  1
  C  C118  1  0.50000000  0.58836276  0.19421610  1
  C  C119  1  0.50000000  0.59064508  0.52737200  1
  C  C120  1  0.50000000  0.59067857  0.86148631  1
  C  C121  1  0.50000000  0.64798620  0.19578710  1
  C  C122  1  0.50000000  0.65157573  0.52686226  1
  C  C123  1  0.50000000  0.65058213  0.86121855  1
  C  C124  1  0.50000000  0.71410680  0.53489445  1
  C  C125  1  0.50000000  0.71073208  0.85957571  1
  C  C126  1  0.50000000  0.26014319  0.55675453  1
  C  C127  1  0.50000000  0.26007646  0.88935187  1
  C  C128  1  0.50000000  0.31945748  0.55609657  1
  C  C129  1  0.50000000  0.31961405  0.88868092  1
  C  C130  1  0.50000000  0.37927686  0.22194213  1
  C  C131  1  0.50000000  0.38005342  0.55615595  1
  C  C132  1  0.50000000  0.38000322  0.88823890  1
  C  C133  1  0.50000000  0.43931138  0.22224796  1
  C  C134  1  0.50000000  0.44021449  0.55604869  1
  C  C135  1  0.50000000  0.44022910  0.88856658  1
  C  C136  1  0.50000000  0.49897415  0.22224154  1
  C  C137  1  0.50000000  0.50023528  0.55580945  1
  C  C138  1  0.50000000  0.50028011  0.88882008  1
  C  C139  1  0.50000000  0.55860465  0.22209757  1
  C  C140  1  0.50000000  0.56052867  0.55531011  1
  C  C141  1  0.50000000  0.56044380  0.88899707  1
  C  C142  1  0.50000000  0.61812124  0.22247376  1
  C  C143  1  0.50000000  0.62143218  0.55457606  1
  C  C144  1  0.50000000  0.62085393  0.88935062  1
  C  C145  1  0.50000000  0.67753828  0.22349135  1
  C  C146  1  0.50000000  0.68224560  0.55607059  1
  C  C147  1  0.50000000  0.68103616  0.88841799  1
  C  C148  1  0.50000000  0.74262262  0.56327844  1
  C  C149  1  0.50000000  0.74116927  0.88376835  1
  C  C150  1  0.50000000  0.26008147  0.61056637  1
  C  C151  1  0.50000000  0.26012131  0.94314819  1
  C  C152  1  0.50000000  0.31960210  0.61132009  1
  C  C153  1  0.50000000  0.31946225  0.94389518  1
  C  C154  1  0.50000000  0.37927651  0.27816037  1
  C  C155  1  0.50000000  0.37999164  0.61176285  1
  C  C156  1  0.50000000  0.38005630  0.94384922  1
  C  C157  1  0.50000000  0.43931055  0.27779143  1
  C  C158  1  0.50000000  0.44022891  0.61145513  1
  C  C159  1  0.50000000  0.44021090  0.94398315  1
  C  C160  1  0.50000000  0.49897639  0.27777690  1
  C  C161  1  0.50000000  0.50028700  0.61118314  1
  C  C162  1  0.50000000  0.50022607  0.94419738  1
  C  C163  1  0.50000000  0.55860875  0.27789144  1
  C  C164  1  0.50000000  0.56044623  0.61097937  1
  C  C165  1  0.50000000  0.56052057  0.94467079  1
  C  C166  1  0.50000000  0.61812420  0.27745616  1
  C  C167  1  0.50000000  0.62086438  0.61063305  1
  C  C168  1  0.50000000  0.62142016  0.94539943  1
  C  C169  1  0.50000000  0.67754770  0.27635831  1
  C  C170  1  0.50000000  0.68105285  0.61159003  1
  C  C171  1  0.50000000  0.68221976  0.94393189  1
  C  C172  1  0.50000000  0.74117665  0.61629358  1
  C  C173  1  0.50000000  0.74260026  0.93677396  1
  H  H174  1  0.50000000  0.23691640  0.70345553  1
  H  H175  1  0.50000000  0.76285092  0.70426329  1
  H  H176  1  0.50000000  0.23696068  0.79673476  1
  H  H177  1  0.50000000  0.76277015  0.79607088  1
  H  H178  1  0.50000000  0.23707650  0.53551036  1
  H  H179  1  0.50000000  0.23672998  0.86913595  1
  H  H180  1  0.50000000  0.76605382  0.54311024  1
  H  H181  1  0.50000000  0.76371682  0.86175022  1
  H  H182  1  0.50000000  0.23667210  0.63056534  1
  H  H183  1  0.50000000  0.23704777  0.96439395  1
  H  H184  1  0.50000000  0.76365630  0.63852318  1
  H  H185  1  0.50000000  0.76600481  0.95703394  1
  H  H186  1  0.50000000  0.28868571  0.01222009  1
  H  H187  1  0.50000000  0.32664647  0.28735743  1
  H  H188  1  0.50000000  0.71936908  0.00545997  1
  H  H189  1  0.50000000  0.32804837  0.04667803  1
  H  H190  1  0.50000000  0.32677384  0.38041455  1
  H  H191  1  0.50000000  0.70221612  0.04695007  1
  H  H192  1  0.50000000  0.70060538  0.36562813  1
  H  H193  1  0.50000000  0.70062258  0.13423311  1
  H  H194  1  0.50000000  0.70231485  0.45264829  1
  H  H195  1  0.50000000  0.32671383  0.11984014  1
  H  H196  1  0.50000000  0.32812383  0.45314216  1
  H  H197  1  0.50000000  0.28872829  0.48765944  1
  H  H198  1  0.50000000  0.32666729  0.21289264  1
  H  H199  1  0.50000000  0.71931709  0.49449038  1
  H  H200  1  0.50000000  0.70078506  0.20328416  1
  H  H201  1  0.50000000  0.70084687  0.29642023  1
