# generated using pymatgen
data_H13C81
_symmetry_space_group_name_H-M   'P 1'
_cell_length_a   20.00000000
_cell_length_b   40.19450000
_cell_length_c   25.86292564
_cell_angle_alpha   90.00000000
_cell_angle_beta   90.00000000
_cell_angle_gamma   90.00000000
_symmetry_Int_Tables_number   1
_chemical_formula_structural   H13C81
_chemical_formula_sum   'H26 C162'
_cell_volume   20790.94729647
_cell_formula_units_Z   2
loop_
 _symmetry_equiv_pos_site_id
 _symmetry_equiv_pos_as_xyz
  1  'x, y, z'
loop_
 _atom_site_type_symbol
 _atom_site_label
 _atom_site_symmetry_multiplicity
 _atom_site_fract_x
 _atom_site_fract_y
 _atom_site_fract_z
 _atom_site_occupancy
  C  C0  1  0.50000000  0.28570811  0.60982914  1
  C  C1  1  0.50000000  0.28590091  0.77663892  1
  C  C2  1  0.50000000  0.28573581  0.94332520  1
  C  C3  1  0.50000000  0.31579957  0.13961407  1
  C  C4  1  0.50000000  0.31587546  0.63884883  1
  C  C5  1  0.50000000  0.31565771  0.30713948  1
  C  C6  1  0.50000000  0.31592624  0.80547184  1
  C  C7  1  0.50000000  0.31644466  0.47416513  1
  C  C8  1  0.50000000  0.31613880  0.97154585  1
  C  C9  1  0.50000000  0.28576345  0.55675076  1
  C  C10  1  0.50000000  0.28589406  0.72348062  1
  C  C11  1  0.50000000  0.28569799  0.89023872  1
  C  C12  1  0.50000000  0.34568315  0.11098648  1
  C  C13  1  0.50000000  0.34668284  0.61171461  1
  C  C14  1  0.50000000  0.34544203  0.27823462  1
  C  C15  1  0.50000000  0.34663912  0.77781743  1
  C  C16  1  0.50000000  0.34585874  0.44562226  1
  C  C17  1  0.50000000  0.34683770  0.94373098  1
  C  C18  1  0.50000000  0.37624063  0.13867044  1
  C  C19  1  0.50000000  0.37757193  0.63942492  1
  C  C20  1  0.50000000  0.37612101  0.30583359  1
  C  C21  1  0.50000000  0.37757210  0.80548546  1
  C  C22  1  0.50000000  0.37694793  0.47297949  1
  C  C23  1  0.50000000  0.37731167  0.97182105  1
  C  C24  1  0.50000000  0.31640615  0.02595285  1
  C  C25  1  0.50000000  0.31617101  0.52855855  1
  C  C26  1  0.50000000  0.31562912  0.19311001  1
  C  C27  1  0.50000000  0.31591660  0.69461540  1
  C  C28  1  0.50000000  0.31583435  0.36061896  1
  C  C29  1  0.50000000  0.31587265  0.86123284  1
  C  C30  1  0.50000000  0.34581800  0.05450970  1
  C  C31  1  0.50000000  0.34686682  0.55636284  1
  C  C32  1  0.50000000  0.34542652  0.22197850  1
  C  C33  1  0.50000000  0.34663872  0.72224553  1
  C  C34  1  0.50000000  0.34573396  0.38917450  1
  C  C35  1  0.50000000  0.34666940  0.88836666  1
  C  C36  1  0.50000000  0.40720022  0.11076146  1
  C  C37  1  0.50000000  0.40827001  0.61148154  1
  C  C38  1  0.50000000  0.40689256  0.27783221  1
  C  C39  1  0.50000000  0.40838573  0.77779719  1
  C  C40  1  0.50000000  0.40754487  0.44491690  1
  C  C41  1  0.50000000  0.40819591  0.94410415  1
  C  C42  1  0.50000000  0.43758295  0.13853264  1
  C  C43  1  0.50000000  0.43903311  0.63901346  1
  C  C44  1  0.50000000  0.43742999  0.30563228  1
  C  C45  1  0.50000000  0.43904089  0.80547315  1
  C  C46  1  0.50000000  0.43828393  0.47255160  1
  C  C47  1  0.50000000  0.43865698  0.97192075  1
  C  C48  1  0.50000000  0.37690807  0.02710930  1
  C  C49  1  0.50000000  0.37733964  0.52826586  1
  C  C50  1  0.50000000  0.37609805  0.19431904  1
  C  C51  1  0.50000000  0.37757582  0.69456983  1
  C  C52  1  0.50000000  0.37627337  0.36146683  1
  C  C53  1  0.50000000  0.37755728  0.86063395  1
  C  C54  1  0.50000000  0.40750381  0.05516974  1
  C  C55  1  0.50000000  0.40821778  0.55597428  1
  C  C56  1  0.50000000  0.40687750  0.22231738  1
  C  C57  1  0.50000000  0.40839313  0.72223128  1
  C  C58  1  0.50000000  0.40723816  0.38934640  1
  C  C59  1  0.50000000  0.40825666  0.88857076  1
  C  C60  1  0.50000000  0.46834402  0.11075872  1
  C  C61  1  0.50000000  0.46975421  0.61111400  1
  C  C62  1  0.50000000  0.46794917  0.27778653  1
  C  C63  1  0.50000000  0.46987915  0.77771080  1
  C  C64  1  0.50000000  0.46880693  0.44463342  1
  C  C65  1  0.50000000  0.46956198  0.94423651  1
  C  C66  1  0.50000000  0.49885360  0.13882860  1
  C  C67  1  0.50000000  0.50064448  0.63876230  1
  C  C68  1  0.50000000  0.49863944  0.30572777  1
  C  C69  1  0.50000000  0.50061319  0.80554252  1
  C  C70  1  0.50000000  0.49973400  0.47237929  1
  C  C71  1  0.50000000  0.50026309  0.97213869  1
  C  C72  1  0.50000000  0.43824899  0.02754100  1
  C  C73  1  0.50000000  0.43866786  0.52813979  1
  C  C74  1  0.50000000  0.43741813  0.19445372  1
  C  C75  1  0.50000000  0.43905113  0.69453067  1
  C  C76  1  0.50000000  0.43759758  0.36152669  1
  C  C77  1  0.50000000  0.43901596  0.86098957  1
  C  C78  1  0.50000000  0.46878183  0.05542907  1
  C  C79  1  0.50000000  0.46957829  0.55574600  1
  C  C80  1  0.50000000  0.46794497  0.22229018  1
  C  C81  1  0.50000000  0.46988796  0.72228037  1
  C  C82  1  0.50000000  0.46835997  0.38930395  1
  C  C83  1  0.50000000  0.46974194  0.88886315  1
  C  C84  1  0.50000000  0.52947632  0.11109986  1
  C  C85  1  0.50000000  0.53125452  0.61091588  1
  C  C86  1  0.50000000  0.52903018  0.27792450  1
  C  C87  1  0.50000000  0.53127376  0.77780964  1
  C  C88  1  0.50000000  0.53012044  0.44458857  1
  C  C89  1  0.50000000  0.53120287  0.94470808  1
  C  C90  1  0.50000000  0.55980182  0.13912577  1
  C  C91  1  0.50000000  0.56220482  0.63852230  1
  C  C92  1  0.50000000  0.55953854  0.30576571  1
  C  C93  1  0.50000000  0.56200414  0.80583997  1
  C  C94  1  0.50000000  0.56108825  0.47213604  1
  C  C95  1  0.50000000  0.56199239  0.97264935  1
  C  C96  1  0.50000000  0.49970067  0.02766141  1
  C  C97  1  0.50000000  0.50029076  0.52787838  1
  C  C98  1  0.50000000  0.49863335  0.19434177  1
  C  C99  1  0.50000000  0.50062263  0.69444497  1
  C  C100  1  0.50000000  0.49886998  0.36123602  1
  C  C101  1  0.50000000  0.50063046  0.86121965  1
  C  C102  1  0.50000000  0.53008953  0.05545523  1
  C  C103  1  0.50000000  0.53123649  0.55530604  1
  C  C104  1  0.50000000  0.52902156  0.22216063  1
  C  C105  1  0.50000000  0.53128372  0.72217300  1
  C  C106  1  0.50000000  0.52949660  0.38897044  1
  C  C107  1  0.50000000  0.53123028  0.88908685  1
  C  C108  1  0.50000000  0.59067351  0.11167118  1
  C  C109  1  0.50000000  0.59301661  0.61064516  1
  C  C110  1  0.50000000  0.59001513  0.27753339  1
  C  C111  1  0.50000000  0.59259395  0.77795710  1
  C  C112  1  0.50000000  0.59158798  0.44397974  1
  C  C113  1  0.50000000  0.59349681  0.94543268  1
  C  C114  1  0.50000000  0.62050221  0.14066087  1
  C  C115  1  0.50000000  0.62347818  0.63874608  1
  C  C116  1  0.50000000  0.62059314  0.30421318  1
  C  C117  1  0.50000000  0.62304724  0.80587115  1
  C  C118  1  0.50000000  0.62276897  0.47077334  1
  C  C119  1  0.50000000  0.62429323  0.97321545  1
  C  C120  1  0.50000000  0.56104014  0.02789219  1
  C  C121  1  0.50000000  0.56204054  0.52738541  1
  C  C122  1  0.50000000  0.55952496  0.19430882  1
  C  C123  1  0.50000000  0.56202085  0.69416850  1
  C  C124  1  0.50000000  0.55982099  0.36095239  1
  C  C125  1  0.50000000  0.56218342  0.86148683  1
  C  C126  1  0.50000000  0.59151988  0.05606762  1
  C  C127  1  0.50000000  0.59354335  0.55458489  1
  C  C128  1  0.50000000  0.59000335  0.22252299  1
  C  C129  1  0.50000000  0.59260125  0.72208258  1
  C  C130  1  0.50000000  0.59070063  0.38838753  1
  C  C131  1  0.50000000  0.59298937  0.88938324  1
  C  C132  1  0.50000000  0.65060297  0.11385006  1
  C  C133  1  0.50000000  0.65463638  0.61148268  1
  C  C134  1  0.50000000  0.65083344  0.27642102  1
  C  C135  1  0.50000000  0.65364159  0.77763819  1
  C  C136  1  0.50000000  0.65125640  0.43862626  1
  C  C137  1  0.50000000  0.65582051  0.94419551  1
  C  C138  1  0.50000000  0.68498841  0.64038345  1
  C  C139  1  0.50000000  0.68428062  0.80431432  1
  C  C140  1  0.50000000  0.68841095  0.96537812  1
  C  C141  1  0.50000000  0.62266526  0.02924509  1
  C  C142  1  0.50000000  0.62436224  0.52683052  1
  C  C143  1  0.50000000  0.62056810  0.19580315  1
  C  C144  1  0.50000000  0.62306332  0.69421354  1
  C  C145  1  0.50000000  0.62050545  0.35935042  1
  C  C146  1  0.50000000  0.62346923  0.86132331  1
  C  C147  1  0.50000000  0.65116176  0.06130290  1
  C  C148  1  0.50000000  0.65587034  0.55591564  1
  C  C149  1  0.50000000  0.65080894  0.22354324  1
  C  C150  1  0.50000000  0.65364549  0.72250267  1
  C  C151  1  0.50000000  0.65061430  0.38608031  1
  C  C152  1  0.50000000  0.65463092  0.88862094  1
  C  C153  1  0.50000000  0.71610114  0.61616113  1
  C  C154  1  0.50000000  0.71428063  0.77652139  1
  C  C155  1  0.50000000  0.71760557  0.93706476  1
  C  C156  1  0.50000000  0.68846747  0.53473296  1
  C  C157  1  0.50000000  0.68428928  0.69586122  1
  C  C158  1  0.50000000  0.68502582  0.85978117  1
  C  C159  1  0.50000000  0.71764020  0.56315920  1
  C  C160  1  0.50000000  0.71428384  0.72372998  1
  C  C161  1  0.50000000  0.71615024  0.88406762  1
  H  H162  1  0.50000000  0.26176316  0.62984150  1
  H  H163  1  0.50000000  0.26193355  0.79660456  1
  H  H164  1  0.50000000  0.26215235  0.96464868  1
  H  H165  1  0.50000000  0.26219591  0.53538230  1
  H  H166  1  0.50000000  0.26189830  0.70360924  1
  H  H167  1  0.50000000  0.26177661  0.87014221  1
  H  H168  1  0.50000000  0.73905569  0.63842493  1
  H  H169  1  0.50000000  0.73825725  0.79610243  1
  H  H170  1  0.50000000  0.74151044  0.95743279  1
  H  H171  1  0.50000000  0.74161142  0.54300570  1
  H  H172  1  0.50000000  0.73832112  0.70436895  1
  H  H173  1  0.50000000  0.73924660  0.86217093  1
  H  H174  1  0.50000000  0.29179248  0.11976318  1
  H  H175  1  0.50000000  0.29158512  0.28744241  1
  H  H176  1  0.50000000  0.29233202  0.45461457  1
  H  H177  1  0.50000000  0.29229405  0.04552218  1
  H  H178  1  0.50000000  0.29154949  0.21280524  1
  H  H179  1  0.50000000  0.29186520  0.38059131  1
  H  H180  1  0.50000000  0.67446713  0.13385581  1
  H  H181  1  0.50000000  0.67468080  0.29646751  1
  H  H182  1  0.50000000  0.67598561  0.45320781  1
  H  H183  1  0.50000000  0.69409191  0.00571691  1
  H  H184  1  0.50000000  0.67577690  0.04633708  1
  H  H185  1  0.50000000  0.67458030  0.20328383  1
  H  H186  1  0.50000000  0.67442584  0.36592938  1
  H  H187  1  0.50000000  0.69402116  0.49433518  1
