# generated using pymatgen
data_H13C81
_symmetry_space_group_name_H-M   'P 1'
_cell_length_a   20.00000000
_cell_length_b   40.19450000
_cell_length_c   25.78169512
_cell_angle_alpha   90.00000000
_cell_angle_beta   90.00000000
_cell_angle_gamma   90.00000000
_symmetry_Int_Tables_number   1
_chemical_formula_structural   H13C81
_chemical_formula_sum   'H26 C162'
_cell_volume   20725.64688937
_cell_formula_units_Z   2
loop_
 _symmetry_equiv_pos_site_id
 _symmetry_equiv_pos_as_xyz
  1  'x, y, z'
loop_
 _atom_site_type_symbol
 _atom_site_label
 _atom_site_symmetry_multiplicity
 _atom_site_fract_x
 _atom_site_fract_y
 _atom_site_fract_z
 _atom_site_occupancy
  C  C0  1  0.50000000  0.28575578  0.10993471  1
  C  C1  1  0.50000000  0.28564398  0.61000229  1
  C  C2  1  0.50000000  0.28572170  0.27659244  1
  C  C3  1  0.50000000  0.28570498  0.77680849  1
  C  C4  1  0.50000000  0.28567046  0.44339240  1
  C  C5  1  0.50000000  0.28574669  0.94349624  1
  C  C6  1  0.50000000  0.31574622  0.13855243  1
  C  C7  1  0.50000000  0.31563004  0.63864413  1
  C  C8  1  0.50000000  0.31569086  0.30526175  1
  C  C9  1  0.50000000  0.31570845  0.80537995  1
  C  C10  1  0.50000000  0.31563773  0.47199249  1
  C  C11  1  0.50000000  0.31575176  0.97200858  1
  C  C12  1  0.50000000  0.28575830  0.05652331  1
  C  C13  1  0.50000000  0.28565741  0.55658430  1
  C  C14  1  0.50000000  0.28575132  0.22319604  1
  C  C15  1  0.50000000  0.28567429  0.72340098  1
  C  C16  1  0.50000000  0.28567099  0.38997730  1
  C  C17  1  0.50000000  0.28573030  0.89008384  1
  C  C18  1  0.50000000  0.34640150  0.11110101  1
  C  C19  1  0.50000000  0.34630103  0.61113497  1
  C  C20  1  0.50000000  0.34635482  0.27777283  1
  C  C21  1  0.50000000  0.34635420  0.77780742  1
  C  C22  1  0.50000000  0.34629601  0.44444920  1
  C  C23  1  0.50000000  0.34639154  0.94445913  1
  C  C24  1  0.50000000  0.37725880  0.13901261  1
  C  C25  1  0.50000000  0.37718471  0.63901836  1
  C  C26  1  0.50000000  0.37722368  0.30566143  1
  C  C27  1  0.50000000  0.37723874  0.80564295  1
  C  C28  1  0.50000000  0.37716206  0.47233558  1
  C  C29  1  0.50000000  0.37724726  0.97232796  1
  C  C30  1  0.50000000  0.31575525  0.02799684  1
  C  C31  1  0.50000000  0.31563395  0.52799740  1
  C  C32  1  0.50000000  0.31574834  0.19462714  1
  C  C33  1  0.50000000  0.31565023  0.69473208  1
  C  C34  1  0.50000000  0.31565658  0.36134770  1
  C  C35  1  0.50000000  0.31572055  0.86145441  1
  C  C36  1  0.50000000  0.34639682  0.05553475  1
  C  C37  1  0.50000000  0.34629219  0.55555443  1
  C  C38  1  0.50000000  0.34637700  0.22220015  1
  C  C39  1  0.50000000  0.34632909  0.72222939  1
  C  C40  1  0.50000000  0.34630986  0.38887092  1
  C  C41  1  0.50000000  0.34639333  0.88889321  1
  C  C42  1  0.50000000  0.40789900  0.11125153  1
  C  C43  1  0.50000000  0.40783646  0.61127672  1
  C  C44  1  0.50000000  0.40789248  0.27793317  1
  C  C45  1  0.50000000  0.40787810  0.77787126  1
  C  C46  1  0.50000000  0.40780750  0.44456776  1
  C  C47  1  0.50000000  0.40786962  0.94451004  1
  C  C48  1  0.50000000  0.43854324  0.13892510  1
  C  C49  1  0.50000000  0.43847797  0.63899836  1
  C  C50  1  0.50000000  0.43852549  0.30560769  1
  C  C51  1  0.50000000  0.43852091  0.80554477  1
  C  C52  1  0.50000000  0.43842034  0.47230344  1
  C  C53  1  0.50000000  0.43849133  0.97220218  1
  C  C54  1  0.50000000  0.37724748  0.02765557  1
  C  C55  1  0.50000000  0.37716556  0.52769228  1
  C  C56  1  0.50000000  0.37725645  0.19435097  1
  C  C57  1  0.50000000  0.37720307  0.69436043  1
  C  C58  1  0.50000000  0.37719477  0.36099802  1
  C  C59  1  0.50000000  0.37725022  0.86098279  1
  C  C60  1  0.50000000  0.40787425  0.05545285  1
  C  C61  1  0.50000000  0.40780568  0.55549816  1
  C  C62  1  0.50000000  0.40790720  0.22211413  1
  C  C63  1  0.50000000  0.40785756  0.72212578  1
  C  C64  1  0.50000000  0.40783794  0.38877117  1
  C  C65  1  0.50000000  0.40788884  0.88873643  1
  C  C66  1  0.50000000  0.46932591  0.11100327  1
  C  C67  1  0.50000000  0.46928015  0.61120181  1
  C  C68  1  0.50000000  0.46937710  0.27776749  1
  C  C69  1  0.50000000  0.46931966  0.77772312  1
  C  C70  1  0.50000000  0.46921707  0.44447888  1
  C  C71  1  0.50000000  0.46926213  0.94426731  1
  C  C72  1  0.50000000  0.50003616  0.13867048  1
  C  C73  1  0.50000000  0.49997124  0.63895976  1
  C  C74  1  0.50000000  0.50003526  0.30548195  1
  C  C75  1  0.50000000  0.50000866  0.80540274  1
  C  C76  1  0.50000000  0.49983224  0.47232218  1
  C  C77  1  0.50000000  0.49993219  0.97194140  1
  C  C78  1  0.50000000  0.43847774  0.02771956  1
  C  C79  1  0.50000000  0.43844184  0.52783184  1
  C  C80  1  0.50000000  0.43854594  0.19444800  1
  C  C81  1  0.50000000  0.43850077  0.69447266  1
  C  C82  1  0.50000000  0.43849651  0.36112090  1
  C  C83  1  0.50000000  0.43851467  0.86102277  1
  C  C84  1  0.50000000  0.46926711  0.05555166  1
  C  C85  1  0.50000000  0.46922149  0.55576925  1
  C  C86  1  0.50000000  0.46938418  0.22228300  1
  C  C87  1  0.50000000  0.46930899  0.72230984  1
  C  C88  1  0.50000000  0.46927994  0.38903160  1
  C  C89  1  0.50000000  0.46930284  0.88883431  1
  C  C90  1  0.50000000  0.53058900  0.11090550  1
  C  C91  1  0.50000000  0.53063641  0.61130176  1
  C  C92  1  0.50000000  0.53066823  0.27775961  1
  C  C93  1  0.50000000  0.53070513  0.77773296  1
  C  C94  1  0.50000000  0.53044492  0.44463765  1
  C  C95  1  0.50000000  0.53052815  0.94411482  1
  C  C96  1  0.50000000  0.56153473  0.13875425  1
  C  C97  1  0.50000000  0.56152209  0.63914666  1
  C  C98  1  0.50000000  0.56154728  0.30571999  1
  C  C99  1  0.50000000  0.56156211  0.80547298  1
  C  C100  1  0.50000000  0.56114804  0.47268571  1
  C  C101  1  0.50000000  0.56133387  0.97194927  1
  C  C102  1  0.50000000  0.49988113  0.02772523  1
  C  C103  1  0.50000000  0.49989083  0.52810137  1
  C  C104  1  0.50000000  0.50004156  0.19455977  1
  C  C105  1  0.50000000  0.50000327  0.69464362  1
  C  C106  1  0.50000000  0.49999841  0.36136884  1
  C  C107  1  0.50000000  0.49997375  0.86107729  1
  C  C108  1  0.50000000  0.53048643  0.05541616  1
  C  C109  1  0.50000000  0.53051380  0.55590227  1
  C  C110  1  0.50000000  0.53066758  0.22229751  1
  C  C111  1  0.50000000  0.53070168  0.72231505  1
  C  C112  1  0.50000000  0.53054617  0.38915849  1
  C  C113  1  0.50000000  0.53063564  0.88871710  1
  C  C114  1  0.50000000  0.59214222  0.11114219  1
  C  C115  1  0.50000000  0.59219810  0.61152994  1
  C  C116  1  0.50000000  0.59220843  0.27814789  1
  C  C117  1  0.50000000  0.59231259  0.77789553  1
  C  C118  1  0.50000000  0.59193136  0.44535006  1
  C  C119  1  0.50000000  0.59200134  0.94413460  1
  C  C120  1  0.50000000  0.62209273  0.13975498  1
  C  C121  1  0.50000000  0.62301391  0.63899313  1
  C  C122  1  0.50000000  0.62211199  0.30687494  1
  C  C123  1  0.50000000  0.62296710  0.80569153  1
  C  C124  1  0.50000000  0.62154285  0.47370142  1
  C  C125  1  0.50000000  0.62248645  0.97222894  1
  C  C126  1  0.50000000  0.56117208  0.02735622  1
  C  C127  1  0.50000000  0.56133267  0.52808432  1
  C  C128  1  0.50000000  0.56154629  0.19435766  1
  C  C129  1  0.50000000  0.56156399  0.69455195  1
  C  C130  1  0.50000000  0.56150457  0.36135109  1
  C  C131  1  0.50000000  0.56150098  0.86086386  1
  C  C132  1  0.50000000  0.59194216  0.05477122  1
  C  C133  1  0.50000000  0.59201659  0.55587464  1
  C  C134  1  0.50000000  0.59220582  0.22194388  1
  C  C135  1  0.50000000  0.59232592  0.72209213  1
  C  C136  1  0.50000000  0.59208499  0.38900474  1
  C  C137  1  0.50000000  0.59215515  0.88848365  1
  C  C138  1  0.50000000  0.65401449  0.61098169  1
  C  C139  1  0.50000000  0.65394925  0.77780343  1
  C  C140  1  0.50000000  0.65399372  0.94448540  1
  C  C141  1  0.50000000  0.68487606  0.63848960  1
  C  C142  1  0.50000000  0.68460059  0.80537870  1
  C  C143  1  0.50000000  0.68460942  0.97089481  1
  C  C144  1  0.50000000  0.62152138  0.02636761  1
  C  C145  1  0.50000000  0.62256754  0.52784604  1
  C  C146  1  0.50000000  0.62212221  0.19326801  1
  C  C147  1  0.50000000  0.62300139  0.69430934  1
  C  C148  1  0.50000000  0.62203439  0.36040579  1
  C  C149  1  0.50000000  0.62295197  0.86101878  1
  C  C150  1  0.50000000  0.65413095  0.55559898  1
  C  C151  1  0.50000000  0.65397787  0.72222944  1
  C  C152  1  0.50000000  0.65390036  0.88911875  1
  C  C153  1  0.50000000  0.71484108  0.61023907  1
  C  C154  1  0.50000000  0.71451463  0.77685308  1
  C  C155  1  0.50000000  0.71460884  0.94394072  1
  C  C156  1  0.50000000  0.68477510  0.52928957  1
  C  C157  1  0.50000000  0.68465215  0.69478422  1
  C  C158  1  0.50000000  0.68476731  0.86171571  1
  C  C159  1  0.50000000  0.71476784  0.55628068  1
  C  C160  1  0.50000000  0.71452807  0.72337762  1
  C  C161  1  0.50000000  0.71470065  0.89000085  1
  H  H162  1  0.50000000  0.26182832  0.13002737  1
  H  H163  1  0.50000000  0.26166385  0.62995761  1
  H  H164  1  0.50000000  0.26175257  0.29655282  1
  H  H165  1  0.50000000  0.26177096  0.79689930  1
  H  H166  1  0.50000000  0.26168679  0.46330722  1
  H  H167  1  0.50000000  0.26182757  0.96362470  1
  H  H168  1  0.50000000  0.26183801  0.03639892  1
  H  H169  1  0.50000000  0.26167337  0.53666633  1
  H  H170  1  0.50000000  0.26182248  0.20310782  1
  H  H171  1  0.50000000  0.26170059  0.70343743  1
  H  H172  1  0.50000000  0.26169582  0.37002427  1
  H  H173  1  0.50000000  0.26179692  0.86999134  1
  H  H174  1  0.50000000  0.73876324  0.63032892  1
  H  H175  1  0.50000000  0.73846069  0.79691732  1
  H  H176  1  0.50000000  0.73820170  0.96524460  1
  H  H177  1  0.50000000  0.73831133  0.53484626  1
  H  H178  1  0.50000000  0.73849220  0.70341608  1
  H  H179  1  0.50000000  0.73859182  0.86985030  1
  H  H180  1  0.50000000  0.68572046  0.48694511  1
  H  H181  1  0.50000000  0.64617337  0.12001928  1
  H  H182  1  0.50000000  0.64614322  0.28703839  1
  H  H183  1  0.50000000  0.64491612  0.45244174  1
  H  H184  1  0.50000000  0.68541048  0.01328083  1
  H  H185  1  0.50000000  0.64495802  0.04743328  1
  H  H186  1  0.50000000  0.64611259  0.21323582  1
  H  H187  1  0.50000000  0.64606332  0.38029420  1
