# generated using pymatgen
data_H20C87
_symmetry_space_group_name_H-M   'P 1'
_cell_length_a   10.00000000
_cell_length_b   41.10890000
_cell_length_c   25.87362421
_cell_angle_alpha   90.00000000
_cell_angle_beta   90.00000000
_cell_angle_gamma   90.00000000
_symmetry_Int_Tables_number   1
_chemical_formula_structural   H20C87
_chemical_formula_sum   'H40 C174'
_cell_volume   10636.36230314
_cell_formula_units_Z   2
loop_
 _symmetry_equiv_pos_site_id
 _symmetry_equiv_pos_as_xyz
  1  'x, y, z'
loop_
 _atom_site_type_symbol
 _atom_site_label
 _atom_site_symmetry_multiplicity
 _atom_site_fract_x
 _atom_site_fract_y
 _atom_site_fract_z
 _atom_site_occupancy
  C  C0  1  0.50000000  0.29017756  0.30521741  1
  C  C1  1  0.50000000  0.28981835  0.63871009  1
  C  C2  1  0.50000000  0.28978132  0.97190028  1
  C  C3  1  0.50000000  0.35030961  0.30572559  1
  C  C4  1  0.50000000  0.34997149  0.63906221  1
  C  C5  1  0.50000000  0.34990888  0.97206830  1
  C  C6  1  0.50000000  0.40942481  0.30693148  1
  C  C7  1  0.50000000  0.40985111  0.63926079  1
  C  C8  1  0.50000000  0.40962251  0.97191776  1
  C  C9  1  0.50000000  0.46984710  0.63975046  1
  C  C10  1  0.50000000  0.47014723  0.96911682  1
  C  C11  1  0.50000000  0.53015292  0.63975046  1
  C  C12  1  0.50000000  0.52985279  0.96911682  1
  C  C13  1  0.50000000  0.59057521  0.30693148  1
  C  C14  1  0.50000000  0.59014890  0.63926079  1
  C  C15  1  0.50000000  0.59037751  0.97191776  1
  C  C16  1  0.50000000  0.64969042  0.30572560  1
  C  C17  1  0.50000000  0.65002852  0.63906221  1
  C  C18  1  0.50000000  0.65009114  0.97206830  1
  C  C19  1  0.50000000  0.70982246  0.30521741  1
  C  C20  1  0.50000000  0.71018167  0.63871010  1
  C  C21  1  0.50000000  0.71021870  0.97190028  1
  C  C22  1  0.50000000  0.28978975  0.02798858  1
  C  C23  1  0.50000000  0.29010649  0.36137570  1
  C  C24  1  0.50000000  0.28983846  0.69476560  1
  C  C25  1  0.50000000  0.34983191  0.02733037  1
  C  C26  1  0.50000000  0.35027197  0.36118805  1
  C  C27  1  0.50000000  0.34996816  0.69444560  1
  C  C28  1  0.50000000  0.40880192  0.02598583  1
  C  C29  1  0.50000000  0.40933947  0.36039147  1
  C  C30  1  0.50000000  0.40984455  0.69452225  1
  C  C31  1  0.50000000  0.46986270  0.69506860  1
  C  C32  1  0.50000000  0.53013731  0.69506860  1
  C  C33  1  0.50000000  0.59119810  0.02598583  1
  C  C34  1  0.50000000  0.59066056  0.36039147  1
  C  C35  1  0.50000000  0.59015547  0.69452225  1
  C  C36  1  0.50000000  0.65016811  0.02733037  1
  C  C37  1  0.50000000  0.64972805  0.36118805  1
  C  C38  1  0.50000000  0.65003186  0.69444560  1
  C  C39  1  0.50000000  0.71021027  0.02798858  1
  C  C40  1  0.50000000  0.70989353  0.36137571  1
  C  C41  1  0.50000000  0.71016156  0.69476560  1
  C  C42  1  0.50000000  0.26057092  0.05677147  1
  C  C43  1  0.50000000  0.26076670  0.38987944  1
  C  C44  1  0.50000000  0.26061530  0.72334707  1
  C  C45  1  0.50000000  0.31974943  0.05542882  1
  C  C46  1  0.50000000  0.31992414  0.38901283  1
  C  C47  1  0.50000000  0.31981496  0.72227804  1
  C  C48  1  0.50000000  0.37994615  0.05457774  1
  C  C49  1  0.50000000  0.38012274  0.38895614  1
  C  C50  1  0.50000000  0.37985030  0.72215750  1
  C  C51  1  0.50000000  0.43989390  0.72238141  1
  C  C52  1  0.50000000  0.50000001  0.72243662  1
  C  C53  1  0.50000000  0.56010612  0.72238142  1
  C  C54  1  0.50000000  0.62005387  0.05457774  1
  C  C55  1  0.50000000  0.61987728  0.38895615  1
  C  C56  1  0.50000000  0.62014972  0.72215750  1
  C  C57  1  0.50000000  0.68025059  0.05542882  1
  C  C58  1  0.50000000  0.68007589  0.38901283  1
  C  C59  1  0.50000000  0.68018506  0.72227805  1
  C  C60  1  0.50000000  0.73942910  0.05677147  1
  C  C61  1  0.50000000  0.73923332  0.38987944  1
  C  C62  1  0.50000000  0.73938472  0.72334707  1
  C  C63  1  0.50000000  0.26073931  0.11011086  1
  C  C64  1  0.50000000  0.26059378  0.44319575  1
  C  C65  1  0.50000000  0.26061074  0.77672536  1
  C  C66  1  0.50000000  0.31992572  0.11097023  1
  C  C67  1  0.50000000  0.31974751  0.44456745  1
  C  C68  1  0.50000000  0.31981102  0.77775464  1
  C  C69  1  0.50000000  0.38013213  0.11105488  1
  C  C70  1  0.50000000  0.37993499  0.44543463  1
  C  C71  1  0.50000000  0.37984644  0.77784973  1
  C  C72  1  0.50000000  0.43989301  0.77762001  1
  C  C73  1  0.50000000  0.50000001  0.77756480  1
  C  C74  1  0.50000000  0.56010701  0.77762001  1
  C  C75  1  0.50000000  0.61986789  0.11105488  1
  C  C76  1  0.50000000  0.62006503  0.44543463  1
  C  C77  1  0.50000000  0.62015357  0.77784973  1
  C  C78  1  0.50000000  0.68007430  0.11097023  1
  C  C79  1  0.50000000  0.68025251  0.44456745  1
  C  C80  1  0.50000000  0.68018900  0.77775464  1
  C  C81  1  0.50000000  0.73926071  0.11011086  1
  C  C82  1  0.50000000  0.73940624  0.44319575  1
  C  C83  1  0.50000000  0.73938928  0.77672536  1
  C  C84  1  0.50000000  0.29010183  0.13857457  1
  C  C85  1  0.50000000  0.28979006  0.47202491  1
  C  C86  1  0.50000000  0.28983675  0.80528480  1
  C  C87  1  0.50000000  0.35027874  0.13879384  1
  C  C88  1  0.50000000  0.34982423  0.47267319  1
  C  C89  1  0.50000000  0.34996516  0.80557445  1
  C  C90  1  0.50000000  0.40933033  0.13968130  1
  C  C91  1  0.50000000  0.40880762  0.47397618  1
  C  C92  1  0.50000000  0.40984238  0.80547686  1
  C  C93  1  0.50000000  0.46986201  0.80493128  1
  C  C94  1  0.50000000  0.53013800  0.80493128  1
  C  C95  1  0.50000000  0.59066970  0.13968130  1
  C  C96  1  0.50000000  0.59119240  0.47397618  1
  C  C97  1  0.50000000  0.59015764  0.80547686  1
  C  C98  1  0.50000000  0.64972129  0.13879384  1
  C  C99  1  0.50000000  0.65017578  0.47267319  1
  C  C100  1  0.50000000  0.65003485  0.80557445  1
  C  C101  1  0.50000000  0.70989819  0.13857457  1
  C  C102  1  0.50000000  0.71020996  0.47202491  1
  C  C103  1  0.50000000  0.71016327  0.80528481  1
  C  C104  1  0.50000000  0.29017233  0.19473263  1
  C  C105  1  0.50000000  0.28978399  0.52810504  1
  C  C106  1  0.50000000  0.28981532  0.86134161  1
  C  C107  1  0.50000000  0.35031938  0.19427654  1
  C  C108  1  0.50000000  0.34990846  0.52793868  1
  C  C109  1  0.50000000  0.34996529  0.86094961  1
  C  C110  1  0.50000000  0.40941561  0.19313190  1
  C  C111  1  0.50000000  0.40963511  0.52805267  1
  C  C112  1  0.50000000  0.40984520  0.86072952  1
  C  C113  1  0.50000000  0.47015092  0.53082490  1
  C  C114  1  0.50000000  0.46984479  0.86023880  1
  C  C115  1  0.50000000  0.52984910  0.53082491  1
  C  C116  1  0.50000000  0.53015523  0.86023880  1
  C  C117  1  0.50000000  0.59058441  0.19313190  1
  C  C118  1  0.50000000  0.59036491  0.52805267  1
  C  C119  1  0.50000000  0.59015482  0.86072952  1
  C  C120  1  0.50000000  0.64968064  0.19427654  1
  C  C121  1  0.50000000  0.65009156  0.52793868  1
  C  C122  1  0.50000000  0.65003473  0.86094961  1
  C  C123  1  0.50000000  0.70982769  0.19473263  1
  C  C124  1  0.50000000  0.71021603  0.52810504  1
  C  C125  1  0.50000000  0.71018470  0.86134161  1
  C  C126  1  0.50000000  0.26093676  0.22328675  1
  C  C127  1  0.50000000  0.26053931  0.55674825  1
  C  C128  1  0.50000000  0.26052493  0.88994980  1
  C  C129  1  0.50000000  0.32009856  0.22224637  1
  C  C130  1  0.50000000  0.31968500  0.55574319  1
  C  C131  1  0.50000000  0.31973899  0.88884390  1
  C  C132  1  0.50000000  0.38026156  0.22186215  1
  C  C133  1  0.50000000  0.37978521  0.55587028  1
  C  C134  1  0.50000000  0.37979450  0.88843169  1
  C  C135  1  0.50000000  0.44034459  0.55622121  1
  C  C136  1  0.50000000  0.43998279  0.88818459  1
  C  C137  1  0.50000000  0.50000001  0.55763053  1
  C  C138  1  0.50000000  0.50000001  0.88714309  1
  C  C139  1  0.50000000  0.55965543  0.55622121  1
  C  C140  1  0.50000000  0.56001723  0.88818459  1
  C  C141  1  0.50000000  0.61973847  0.22186215  1
  C  C142  1  0.50000000  0.62021481  0.55587028  1
  C  C143  1  0.50000000  0.62020551  0.88843169  1
  C  C144  1  0.50000000  0.67990146  0.22224637  1
  C  C145  1  0.50000000  0.68031501  0.55574319  1
  C  C146  1  0.50000000  0.68026103  0.88884390  1
  C  C147  1  0.50000000  0.73906326  0.22328675  1
  C  C148  1  0.50000000  0.73946070  0.55674825  1
  C  C149  1  0.50000000  0.73947508  0.88994980  1
  C  C150  1  0.50000000  0.26094133  0.27664562  1
  C  C151  1  0.50000000  0.26054847  0.61006917  1
  C  C152  1  0.50000000  0.26051744  0.94329508  1
  C  C153  1  0.50000000  0.32010467  0.27773192  1
  C  C154  1  0.50000000  0.31973992  0.61118212  1
  C  C155  1  0.50000000  0.31968400  0.94427495  1
  C  C156  1  0.50000000  0.38026335  0.27818784  1
  C  C157  1  0.50000000  0.37980089  0.61156141  1
  C  C158  1  0.50000000  0.37977622  0.94411587  1
  C  C159  1  0.50000000  0.43998756  0.61179640  1
  C  C160  1  0.50000000  0.44033694  0.94375296  1
  C  C161  1  0.50000000  0.50000001  0.61283628  1
  C  C162  1  0.50000000  0.50000001  0.94233183  1
  C  C163  1  0.50000000  0.56001246  0.61179640  1
  C  C164  1  0.50000000  0.55966308  0.94375296  1
  C  C165  1  0.50000000  0.61973667  0.27818784  1
  C  C166  1  0.50000000  0.62019913  0.61156141  1
  C  C167  1  0.50000000  0.62022380  0.94411587  1
  C  C168  1  0.50000000  0.67989535  0.27773192  1
  C  C169  1  0.50000000  0.68026009  0.61118212  1
  C  C170  1  0.50000000  0.68031602  0.94427495  1
  C  C171  1  0.50000000  0.73905869  0.27664562  1
  C  C172  1  0.50000000  0.73945155  0.61006917  1
  C  C173  1  0.50000000  0.73948258  0.94329508  1
  H  H174  1  0.50000000  0.23707875  0.03694216  1
  H  H175  1  0.50000000  0.23729070  0.37004003  1
  H  H176  1  0.50000000  0.23718176  0.70340009  1
  H  H177  1  0.50000000  0.76292127  0.03694216  1
  H  H178  1  0.50000000  0.76270932  0.37004004  1
  H  H179  1  0.50000000  0.76281826  0.70340010  1
  H  H180  1  0.50000000  0.23734777  0.13022877  1
  H  H181  1  0.50000000  0.23701330  0.46272567  1
  H  H182  1  0.50000000  0.23718085  0.79670402  1
  H  H183  1  0.50000000  0.76265225  0.13022877  1
  H  H184  1  0.50000000  0.76298672  0.46272568  1
  H  H185  1  0.50000000  0.76281917  0.79670402  1
  H  H186  1  0.50000000  0.23750321  0.20332527  1
  H  H187  1  0.50000000  0.23704276  0.53699816  1
  H  H188  1  0.50000000  0.23707679  0.86996681  1
  H  H189  1  0.50000000  0.76249681  0.20332527  1
  H  H190  1  0.50000000  0.76295726  0.53699817  1
  H  H191  1  0.50000000  0.76292322  0.86996681  1
  H  H192  1  0.50000000  0.23750696  0.29658176  1
  H  H193  1  0.50000000  0.23702551  0.62979888  1
  H  H194  1  0.50000000  0.23710379  0.96332674  1
  H  H195  1  0.50000000  0.76249306  0.29658176  1
  H  H196  1  0.50000000  0.76297451  0.62979889  1
  H  H197  1  0.50000000  0.76289623  0.96332674  1
  H  H198  1  0.50000000  0.43291289  0.28715910  1
  H  H199  1  0.50000000  0.47140749  0.01133493  1
  H  H200  1  0.50000000  0.52859253  0.01133493  1
  H  H201  1  0.50000000  0.56708713  0.28715910  1
  H  H202  1  0.50000000  0.43176827  0.04688818  1
  H  H203  1  0.50000000  0.43282467  0.38021359  1
  H  H204  1  0.50000000  0.56823174  0.04688818  1
  H  H205  1  0.50000000  0.56717536  0.38021359  1
  H  H206  1  0.50000000  0.43286496  0.12001342  1
  H  H207  1  0.50000000  0.43170818  0.45285696  1
  H  H208  1  0.50000000  0.56713506  0.12001342  1
  H  H209  1  0.50000000  0.56829184  0.45285696  1
  H  H210  1  0.50000000  0.43293175  0.21283981  1
  H  H211  1  0.50000000  0.47140181  0.48856994  1
  H  H212  1  0.50000000  0.52859821  0.48856994  1
  H  H213  1  0.50000000  0.56706827  0.21283981  1
