# generated using pymatgen
data_H19C78
_symmetry_space_group_name_H-M   'P 1'
_cell_length_a   20.00000000
_cell_length_b   37.22700000
_cell_length_c   25.88843839
_cell_angle_alpha   90.00000000
_cell_angle_beta   90.00000000
_cell_angle_gamma   90.00000000
_symmetry_Int_Tables_number   1
_chemical_formula_structural   H19C78
_chemical_formula_sum   'H38 C156'
_cell_volume   19274.97792091
_cell_formula_units_Z   2
loop_
 _symmetry_equiv_pos_site_id
 _symmetry_equiv_pos_as_xyz
  1  'x, y, z'
loop_
 _atom_site_type_symbol
 _atom_site_label
 _atom_site_symmetry_multiplicity
 _atom_site_fract_x
 _atom_site_fract_y
 _atom_site_fract_z
 _atom_site_occupancy
  C  C0  1  0.50000000  0.31651379  0.22217022  1
  C  C1  1  0.50000000  0.31528536  0.55528823  1
  C  C2  1  0.50000000  0.31512462  0.88883559  1
  C  C3  1  0.50000000  0.38280362  0.22242332  1
  C  C4  1  0.50000000  0.38160913  0.55619097  1
  C  C5  1  0.50000000  0.38150611  0.88870420  1
  C  C6  1  0.50000000  0.44906852  0.22199235  1
  C  C7  1  0.50000000  0.44782857  0.55688343  1
  C  C8  1  0.50000000  0.44781126  0.88778353  1
  C  C9  1  0.50000000  0.51452138  0.55898509  1
  C  C10  1  0.50000000  0.51435955  0.88661345  1
  C  C11  1  0.50000000  0.59240021  0.22372721  1
  C  C12  1  0.50000000  0.58161063  0.55595026  1
  C  C13  1  0.50000000  0.58147855  0.88839962  1
  C  C14  1  0.50000000  0.65854726  0.22228704  1
  C  C15  1  0.50000000  0.64852574  0.55536711  1
  C  C16  1  0.50000000  0.64793587  0.88874719  1
  C  C17  1  0.50000000  0.72362458  0.22317585  1
  C  C18  1  0.50000000  0.71465531  0.55936525  1
  C  C19  1  0.50000000  0.71378713  0.88800876  1
  C  C20  1  0.50000000  0.31651977  0.27792638  1
  C  C21  1  0.50000000  0.31514598  0.61109039  1
  C  C22  1  0.50000000  0.31528342  0.94464499  1
  C  C23  1  0.50000000  0.38280689  0.27762436  1
  C  C24  1  0.50000000  0.38151716  0.61130010  1
  C  C25  1  0.50000000  0.38161198  0.94383104  1
  C  C26  1  0.50000000  0.44906909  0.27815952  1
  C  C27  1  0.50000000  0.44781138  0.61225169  1
  C  C28  1  0.50000000  0.44783883  0.94316208  1
  C  C29  1  0.50000000  0.51436674  0.61339041  1
  C  C30  1  0.50000000  0.51451079  0.94100673  1
  C  C31  1  0.50000000  0.59238261  0.27608909  1
  C  C32  1  0.50000000  0.58149263  0.61159895  1
  C  C33  1  0.50000000  0.58159322  0.94404367  1
  C  C34  1  0.50000000  0.65854668  0.27763183  1
  C  C35  1  0.50000000  0.64796265  0.61129994  1
  C  C36  1  0.50000000  0.64849563  0.94466912  1
  C  C37  1  0.50000000  0.72363936  0.27666465  1
  C  C38  1  0.50000000  0.71382505  0.61212449  1
  C  C39  1  0.50000000  0.71461374  0.94073486  1
  C  C40  1  0.50000000  0.28398074  0.30657364  1
  C  C41  1  0.50000000  0.28270150  0.63984298  1
  C  C42  1  0.50000000  0.28300969  0.97387960  1
  C  C43  1  0.50000000  0.34953204  0.30558910  1
  C  C44  1  0.50000000  0.34817169  0.63895285  1
  C  C45  1  0.50000000  0.34848949  0.97202632  1
  C  C46  1  0.50000000  0.41600625  0.30585666  1
  C  C47  1  0.50000000  0.41465075  0.63947648  1
  C  C48  1  0.50000000  0.41494841  0.97147526  1
  C  C49  1  0.50000000  0.48130780  0.30747757  1
  C  C50  1  0.50000000  0.48094856  0.64046813  1
  C  C51  1  0.50000000  0.48109815  0.97066299  1
  C  C52  1  0.50000000  0.54813213  0.63960655  1
  C  C53  1  0.50000000  0.54737413  0.96632785  1
  C  C54  1  0.50000000  0.62510768  0.30411589  1
  C  C55  1  0.50000000  0.61462519  0.63935989  1
  C  C56  1  0.50000000  0.61564520  0.97368115  1
  C  C57  1  0.50000000  0.69127507  0.30649319  1
  C  C58  1  0.50000000  0.68074605  0.63950721  1
  C  C59  1  0.50000000  0.68269564  0.97070880  1
  C  C60  1  0.50000000  0.28325825  0.02700982  1
  C  C61  1  0.50000000  0.28379769  0.35963979  1
  C  C62  1  0.50000000  0.28262408  0.69300894  1
  C  C63  1  0.50000000  0.34877986  0.02764301  1
  C  C64  1  0.50000000  0.34935745  0.36128416  1
  C  C65  1  0.50000000  0.34810265  0.69449556  1
  C  C66  1  0.50000000  0.41514697  0.02691827  1
  C  C67  1  0.50000000  0.41587209  0.36166965  1
  C  C68  1  0.50000000  0.41462407  0.69477648  1
  C  C69  1  0.50000000  0.48037448  0.02473481  1
  C  C70  1  0.50000000  0.48113522  0.36076065  1
  C  C71  1  0.50000000  0.48109589  0.69513189  1
  C  C72  1  0.50000000  0.54798736  0.69490335  1
  C  C73  1  0.50000000  0.61856966  0.02934017  1
  C  C74  1  0.50000000  0.62424384  0.35860117  1
  C  C75  1  0.50000000  0.61435627  0.69436463  1
  C  C76  1  0.50000000  0.68521911  0.02596453  1
  C  C77  1  0.50000000  0.68992386  0.36241154  1
  C  C78  1  0.50000000  0.68056692  0.69497062  1
  C  C79  1  0.50000000  0.31582953  0.05561038  1
  C  C80  1  0.50000000  0.31615551  0.38866192  1
  C  C81  1  0.50000000  0.31498011  0.72204179  1
  C  C82  1  0.50000000  0.38214972  0.05534063  1
  C  C83  1  0.50000000  0.38246019  0.38947793  1
  C  C84  1  0.50000000  0.38137163  0.72244989  1
  C  C85  1  0.50000000  0.44852130  0.05402571  1
  C  C86  1  0.50000000  0.44877322  0.38969802  1
  C  C87  1  0.50000000  0.44776111  0.72246206  1
  C  C88  1  0.50000000  0.51464098  0.72252618  1
  C  C89  1  0.50000000  0.58857805  0.06348237  1
  C  C90  1  0.50000000  0.59103354  0.38426252  1
  C  C91  1  0.50000000  0.58110783  0.72240530  1
  C  C92  1  0.50000000  0.65311470  0.05538993  1
  C  C93  1  0.50000000  0.65597273  0.38879288  1
  C  C94  1  0.50000000  0.64748389  0.72235883  1
  C  C95  1  0.50000000  0.71877642  0.05284800  1
  C  C96  1  0.50000000  0.72115753  0.39399774  1
  C  C97  1  0.50000000  0.71306033  0.72367712  1
  C  C98  1  0.50000000  0.31612140  0.11137397  1
  C  C99  1  0.50000000  0.31586502  0.44440781  1
  C  C100  1  0.50000000  0.31499268  0.77787498  1
  C  C101  1  0.50000000  0.38243679  0.11054857  1
  C  C102  1  0.50000000  0.38216556  0.44466978  1
  C  C103  1  0.50000000  0.38137829  0.77753486  1
  C  C104  1  0.50000000  0.44880182  0.11039201  1
  C  C105  1  0.50000000  0.44850201  0.44605189  1
  C  C106  1  0.50000000  0.44776252  0.77756221  1
  C  C107  1  0.50000000  0.51463852  0.77746860  1
  C  C108  1  0.50000000  0.59102250  0.11566697  1
  C  C109  1  0.50000000  0.58859007  0.43645633  1
  C  C110  1  0.50000000  0.58109788  0.77760334  1
  C  C111  1  0.50000000  0.65597517  0.11115692  1
  C  C112  1  0.50000000  0.65314009  0.44459111  1
  C  C113  1  0.50000000  0.64746265  0.77771378  1
  C  C114  1  0.50000000  0.72117506  0.10589789  1
  C  C115  1  0.50000000  0.71880824  0.44706093  1
  C  C116  1  0.50000000  0.71303808  0.77656861  1
  C  C117  1  0.50000000  0.28378704  0.14046540  1
  C  C118  1  0.50000000  0.28327427  0.47291980  1
  C  C119  1  0.50000000  0.28263765  0.80685825  1
  C  C120  1  0.50000000  0.34933255  0.13875547  1
  C  C121  1  0.50000000  0.34880153  0.47237370  1
  C  C122  1  0.50000000  0.34810692  0.80546083  1
  C  C123  1  0.50000000  0.41586146  0.13835254  1
  C  C124  1  0.50000000  0.41513737  0.47313516  1
  C  C125  1  0.50000000  0.41462546  0.80524186  1
  C  C126  1  0.50000000  0.48116278  0.13940361  1
  C  C127  1  0.50000000  0.48035572  0.47533667  1
  C  C128  1  0.50000000  0.48109721  0.80488683  1
  C  C129  1  0.50000000  0.54798093  0.80509468  1
  C  C130  1  0.50000000  0.62424415  0.14131753  1
  C  C131  1  0.50000000  0.61858190  0.47064350  1
  C  C132  1  0.50000000  0.61433839  0.80566729  1
  C  C133  1  0.50000000  0.68993891  0.13751028  1
  C  C134  1  0.50000000  0.68526626  0.47403533  1
  C  C135  1  0.50000000  0.68051565  0.80516758  1
  C  C136  1  0.50000000  0.28398586  0.19351891  1
  C  C137  1  0.50000000  0.28299524  0.52604668  1
  C  C138  1  0.50000000  0.28268572  0.86002088  1
  C  C139  1  0.50000000  0.34951610  0.19446544  1
  C  C140  1  0.50000000  0.34850210  0.52796069  1
  C  C141  1  0.50000000  0.34816607  0.86100434  1
  C  C142  1  0.50000000  0.41601336  0.19419735  1
  C  C143  1  0.50000000  0.41494498  0.52856971  1
  C  C144  1  0.50000000  0.41464894  0.86054231  1
  C  C145  1  0.50000000  0.48132470  0.19271077  1
  C  C146  1  0.50000000  0.48108628  0.52938685  1
  C  C147  1  0.50000000  0.48094162  0.85954504  1
  C  C148  1  0.50000000  0.54738507  0.53363603  1
  C  C149  1  0.50000000  0.54812090  0.86038389  1
  C  C150  1  0.50000000  0.62513066  0.19578238  1
  C  C151  1  0.50000000  0.61567108  0.52632450  1
  C  C152  1  0.50000000  0.61460899  0.86065989  1
  C  C153  1  0.50000000  0.69126151  0.19341410  1
  C  C154  1  0.50000000  0.68273995  0.52933432  1
  C  C155  1  0.50000000  0.68071623  0.86061238  1
  H  H156  1  0.50000000  0.74965017  0.20343394  1
  H  H157  1  0.50000000  0.74071018  0.54003974  1
  H  H158  1  0.50000000  0.73926943  0.86719469  1
  H  H159  1  0.50000000  0.74973237  0.29620336  1
  H  H160  1  0.50000000  0.73920194  0.63325652  1
  H  H161  1  0.50000000  0.74071774  0.95989998  1
  H  H162  1  0.50000000  0.25821141  0.28638348  1
  H  H163  1  0.50000000  0.25687311  0.61976791  1
  H  H164  1  0.50000000  0.25700993  0.95426087  1
  H  H165  1  0.50000000  0.25740162  0.04702565  1
  H  H166  1  0.50000000  0.25788032  0.37948159  1
  H  H167  1  0.50000000  0.25667887  0.71274521  1
  H  H168  1  0.50000000  0.74384564  0.03094418  1
  H  H169  1  0.50000000  0.74773740  0.37597395  1
  H  H170  1  0.50000000  0.73903657  0.70410713  1
  H  H171  1  0.50000000  0.74782564  0.12369039  1
  H  H172  1  0.50000000  0.74393111  0.46884021  1
  H  H173  1  0.50000000  0.73891071  0.79644209  1
  H  H174  1  0.50000000  0.25777874  0.12090208  1
  H  H175  1  0.50000000  0.25749169  0.45268404  1
  H  H176  1  0.50000000  0.25673221  0.78701343  1
  H  H177  1  0.50000000  0.25816126  0.21354904  1
  H  H178  1  0.50000000  0.25697731  0.54562093  1
  H  H179  1  0.50000000  0.25680608  0.87994146  1
  H  H180  1  0.50000000  0.56672576  0.20366389  1
  H  H181  1  0.50000000  0.56662832  0.29592392  1
  H  H182  1  0.50000000  0.50724131  0.28771853  1
  H  H183  1  0.50000000  0.54409542  0.00705260  1
  H  H184  1  0.50000000  0.50562388  0.04599010  1
  H  H185  1  0.50000000  0.50696204  0.38079930  1
  H  H186  1  0.50000000  0.56125041  0.05089361  1
  H  H187  1  0.50000000  0.56601202  0.36261072  1
  H  H188  1  0.50000000  0.56597628  0.13724245  1
  H  H189  1  0.50000000  0.56123129  0.44892689  1
  H  H190  1  0.50000000  0.50699173  0.11934355  1
  H  H191  1  0.50000000  0.50562381  0.45413238  1
  H  H192  1  0.50000000  0.50717670  0.21271602  1
  H  H193  1  0.50000000  0.54414466  0.49287719  1
