# generated using pymatgen
data_H14C87
_symmetry_space_group_name_H-M   'P 1'
_cell_length_a   10.00000000
_cell_length_b   41.10890000
_cell_length_c   25.79089327
_cell_angle_alpha   90.00000000
_cell_angle_beta   90.00000000
_cell_angle_gamma   90.00000000
_symmetry_Int_Tables_number   1
_chemical_formula_structural   H14C87
_chemical_formula_sum   'H28 C174'
_cell_volume   10602.35252332
_cell_formula_units_Z   2
loop_
 _symmetry_equiv_pos_site_id
 _symmetry_equiv_pos_as_xyz
  1  'x, y, z'
loop_
 _atom_site_type_symbol
 _atom_site_label
 _atom_site_symmetry_multiplicity
 _atom_site_fract_x
 _atom_site_fract_y
 _atom_site_fract_z
 _atom_site_occupancy
  C  C0  1  0.50000000  0.28991416  0.30524784  1
  C  C1  1  0.50000000  0.28987538  0.63863913  1
  C  C2  1  0.50000000  0.28986769  0.97200311  1
  C  C3  1  0.50000000  0.35007916  0.30564219  1
  C  C4  1  0.50000000  0.35005277  0.63898363  1
  C  C5  1  0.50000000  0.35000741  0.97232516  1
  C  C6  1  0.50000000  0.41000751  0.30558958  1
  C  C7  1  0.50000000  0.40995310  0.63895830  1
  C  C8  1  0.50000000  0.40989478  0.97222160  1
  C  C9  1  0.50000000  0.47012596  0.30543966  1
  C  C10  1  0.50000000  0.47003895  0.63885442  1
  C  C11  1  0.50000000  0.46993735  0.97200934  1
  C  C12  1  0.50000000  0.53024665  0.30563444  1
  C  C13  1  0.50000000  0.53019930  0.63897054  1
  C  C14  1  0.50000000  0.52995864  0.97205998  1
  C  C15  1  0.50000000  0.58947178  0.30682512  1
  C  C16  1  0.50000000  0.59027417  0.63904833  1
  C  C17  1  0.50000000  0.58971241  0.97228428  1
  C  C18  1  0.50000000  0.65039715  0.63904272  1
  C  C19  1  0.50000000  0.65014169  0.97035322  1
  C  C20  1  0.50000000  0.71093707  0.63819933  1
  C  C21  1  0.50000000  0.70998382  0.97182696  1
  C  C22  1  0.50000000  0.28987108  0.02802274  1
  C  C23  1  0.50000000  0.28985943  0.36129611  1
  C  C24  1  0.50000000  0.28988698  0.69470965  1
  C  C25  1  0.50000000  0.35000877  0.02767889  1
  C  C26  1  0.50000000  0.35003403  0.36098757  1
  C  C27  1  0.50000000  0.35008508  0.69435089  1
  C  C28  1  0.50000000  0.40989018  0.02771485  1
  C  C29  1  0.50000000  0.40997471  0.36108695  1
  C  C30  1  0.50000000  0.40999217  0.69442599  1
  C  C31  1  0.50000000  0.46991437  0.02775914  1
  C  C32  1  0.50000000  0.47009408  0.36130317  1
  C  C33  1  0.50000000  0.47007911  0.69457333  1
  C  C34  1  0.50000000  0.52983684  0.02746952  1
  C  C35  1  0.50000000  0.53020488  0.36123013  1
  C  C36  1  0.50000000  0.53023980  0.69455280  1
  C  C37  1  0.50000000  0.58882059  0.02632466  1
  C  C38  1  0.50000000  0.58941030  0.36033307  1
  C  C39  1  0.50000000  0.59031189  0.69438698  1
  C  C40  1  0.50000000  0.65038170  0.69465814  1
  C  C41  1  0.50000000  0.71081205  0.69463448  1
  C  C42  1  0.50000000  0.26056562  0.05657973  1
  C  C43  1  0.50000000  0.26056777  0.38995194  1
  C  C44  1  0.50000000  0.26057649  0.72330096  1
  C  C45  1  0.50000000  0.31983714  0.05556903  1
  C  C46  1  0.50000000  0.31983258  0.38884536  1
  C  C47  1  0.50000000  0.31989547  0.72221495  1
  C  C48  1  0.50000000  0.37995201  0.05544096  1
  C  C49  1  0.50000000  0.37999090  0.38875078  1
  C  C50  1  0.50000000  0.38003104  0.72209956  1
  C  C51  1  0.50000000  0.43999440  0.05556054  1
  C  C52  1  0.50000000  0.44007920  0.38897824  1
  C  C53  1  0.50000000  0.44013076  0.72224021  1
  C  C54  1  0.50000000  0.49983595  0.05547520  1
  C  C55  1  0.50000000  0.49996606  0.38907019  1
  C  C56  1  0.50000000  0.50011997  0.72228767  1
  C  C57  1  0.50000000  0.55989669  0.05481280  1
  C  C58  1  0.50000000  0.56009594  0.38888407  1
  C  C59  1  0.50000000  0.56022081  0.72215473  1
  C  C60  1  0.50000000  0.62048486  0.72212821  1
  C  C61  1  0.50000000  0.68071342  0.72221633  1
  C  C62  1  0.50000000  0.73994119  0.72321640  1
  C  C63  1  0.50000000  0.26055788  0.11002978  1
  C  C64  1  0.50000000  0.26057273  0.44334399  1
  C  C65  1  0.50000000  0.26056930  0.77673033  1
  C  C66  1  0.50000000  0.31984033  0.11112977  1
  C  C67  1  0.50000000  0.31984505  0.44440082  1
  C  C68  1  0.50000000  0.31989975  0.77777723  1
  C  C69  1  0.50000000  0.37999281  0.11123797  1
  C  C70  1  0.50000000  0.37995263  0.44454651  1
  C  C71  1  0.50000000  0.38003008  0.77788423  1
  C  C72  1  0.50000000  0.44007746  0.11101075  1
  C  C73  1  0.50000000  0.43999584  0.44442665  1
  C  C74  1  0.50000000  0.44012988  0.77774848  1
  C  C75  1  0.50000000  0.49996456  0.11092326  1
  C  C76  1  0.50000000  0.49983748  0.44451490  1
  C  C77  1  0.50000000  0.50011893  0.77770372  1
  C  C78  1  0.50000000  0.56009712  0.11111861  1
  C  C79  1  0.50000000  0.55989520  0.44518954  1
  C  C80  1  0.50000000  0.56021983  0.77784006  1
  C  C81  1  0.50000000  0.62048413  0.77787153  1
  C  C82  1  0.50000000  0.68071202  0.77778722  1
  C  C83  1  0.50000000  0.73994143  0.77683491  1
  C  C84  1  0.50000000  0.28985901  0.13865354  1
  C  C85  1  0.50000000  0.28989211  0.47192336  1
  C  C86  1  0.50000000  0.28989846  0.80530958  1
  C  C87  1  0.50000000  0.35004013  0.13899961  1
  C  C88  1  0.50000000  0.35001063  0.47230700  1
  C  C89  1  0.50000000  0.35008903  0.80563988  1
  C  C90  1  0.50000000  0.40997418  0.13890136  1
  C  C91  1  0.50000000  0.40989155  0.47227224  1
  C  C92  1  0.50000000  0.40999156  0.80556277  1
  C  C93  1  0.50000000  0.47009209  0.13868463  1
  C  C94  1  0.50000000  0.46991618  0.47222899  1
  C  C95  1  0.50000000  0.47007806  0.80541889  1
  C  C96  1  0.50000000  0.53020348  0.13876721  1
  C  C97  1  0.50000000  0.52983682  0.47252724  1
  C  C98  1  0.50000000  0.53023777  0.80544175  1
  C  C99  1  0.50000000  0.58939794  0.13970832  1
  C  C100  1  0.50000000  0.58882829  0.47365620  1
  C  C101  1  0.50000000  0.59031033  0.80561350  1
  C  C102  1  0.50000000  0.65038051  0.80534882  1
  C  C103  1  0.50000000  0.71080363  0.80538643  1
  C  C104  1  0.50000000  0.28991222  0.19468912  1
  C  C105  1  0.50000000  0.28987162  0.52801781  1
  C  C106  1  0.50000000  0.28987842  0.86141063  1
  C  C107  1  0.50000000  0.35007903  0.19433304  1
  C  C108  1  0.50000000  0.35001071  0.52765832  1
  C  C109  1  0.50000000  0.35004895  0.86099855  1
  C  C110  1  0.50000000  0.41000531  0.19439762  1
  C  C111  1  0.50000000  0.40989692  0.52776658  1
  C  C112  1  0.50000000  0.40995188  0.86102718  1
  C  C113  1  0.50000000  0.47012552  0.19454687  1
  C  C114  1  0.50000000  0.46994063  0.52798250  1
  C  C115  1  0.50000000  0.47003627  0.86113706  1
  C  C116  1  0.50000000  0.53024768  0.19436822  1
  C  C117  1  0.50000000  0.52996175  0.52793875  1
  C  C118  1  0.50000000  0.53019533  0.86102391  1
  C  C119  1  0.50000000  0.58946081  0.19320982  1
  C  C120  1  0.50000000  0.58972206  0.52770628  1
  C  C121  1  0.50000000  0.59027255  0.86095494  1
  C  C122  1  0.50000000  0.65014739  0.52967027  1
  C  C123  1  0.50000000  0.65039629  0.86096953  1
  C  C124  1  0.50000000  0.70998680  0.52825783  1
  C  C125  1  0.50000000  0.71092429  0.86181310  1
  C  C126  1  0.50000000  0.26061387  0.22325083  1
  C  C127  1  0.50000000  0.26055668  0.55660631  1
  C  C128  1  0.50000000  0.26055418  0.89000130  1
  C  C129  1  0.50000000  0.31989925  0.22220514  1
  C  C130  1  0.50000000  0.31984060  0.55553540  1
  C  C131  1  0.50000000  0.31985555  0.88889019  1
  C  C132  1  0.50000000  0.38004570  0.22208088  1
  C  C133  1  0.50000000  0.37994865  0.55544950  1
  C  C134  1  0.50000000  0.37998208  0.88874837  1
  C  C135  1  0.50000000  0.44015876  0.22225841  1
  C  C136  1  0.50000000  0.43999493  0.55567480  1
  C  C137  1  0.50000000  0.44004872  0.88885050  1
  C  C138  1  0.50000000  0.50007000  0.22229303  1
  C  C139  1  0.50000000  0.49987630  0.55578585  1
  C  C140  1  0.50000000  0.49999170  0.88884359  1
  C  C141  1  0.50000000  0.56021793  0.22190865  1
  C  C142  1  0.50000000  0.55989793  0.55576559  1
  C  C143  1  0.50000000  0.56004444  0.88857922  1
  C  C144  1  0.50000000  0.62058903  0.55561513  1
  C  C145  1  0.50000000  0.62040219  0.88859677  1
  C  C146  1  0.50000000  0.68027259  0.55592873  1
  C  C147  1  0.50000000  0.68053864  0.88858941  1
  C  C148  1  0.50000000  0.73937582  0.55465906  1
  C  C149  1  0.50000000  0.73980170  0.89098896  1
  C  C150  1  0.50000000  0.26061894  0.27667273  1
  C  C151  1  0.50000000  0.26057184  0.61002733  1
  C  C152  1  0.50000000  0.26055747  0.94345655  1
  C  C153  1  0.50000000  0.31989977  0.27775577  1
  C  C154  1  0.50000000  0.31986184  0.61109745  1
  C  C155  1  0.50000000  0.31983730  0.94444406  1
  C  C156  1  0.50000000  0.38004988  0.27790851  1
  C  C157  1  0.50000000  0.37998388  0.61123977  1
  C  C158  1  0.50000000  0.37994809  0.94453792  1
  C  C159  1  0.50000000  0.44015932  0.27772948  1
  C  C160  1  0.50000000  0.44005170  0.61113761  1
  C  C161  1  0.50000000  0.43999249  0.94431499  1
  C  C162  1  0.50000000  0.50007075  0.27769885  1
  C  C163  1  0.50000000  0.49999534  0.61115061  1
  C  C164  1  0.50000000  0.49987339  0.94421154  1
  C  C165  1  0.50000000  0.56022186  0.27811723  1
  C  C166  1  0.50000000  0.56004953  0.61141429  1
  C  C167  1  0.50000000  0.55989158  0.94422638  1
  C  C168  1  0.50000000  0.62040277  0.61140895  1
  C  C169  1  0.50000000  0.62058712  0.94439295  1
  C  C170  1  0.50000000  0.68054263  0.61144352  1
  C  C171  1  0.50000000  0.68027324  0.94411936  1
  C  C172  1  0.50000000  0.73982529  0.60903662  1
  C  C173  1  0.50000000  0.73934848  0.94535119  1
  H  H174  1  0.50000000  0.23718844  0.03641411  1
  H  H175  1  0.50000000  0.23714992  0.36992634  1
  H  H176  1  0.50000000  0.23716150  0.70325737  1
  H  H177  1  0.50000000  0.76333173  0.70306671  1
  H  H178  1  0.50000000  0.23718086  0.13021895  1
  H  H179  1  0.50000000  0.23714594  0.46337621  1
  H  H180  1  0.50000000  0.23716947  0.79684443  1
  H  H181  1  0.50000000  0.76332230  0.79701549  1
  H  H182  1  0.50000000  0.23721996  0.20315660  1
  H  H183  1  0.50000000  0.23713952  0.53658332  1
  H  H184  1  0.50000000  0.23716512  0.86981728  1
  H  H185  1  0.50000000  0.76238478  0.53317508  1
  H  H186  1  0.50000000  0.76346605  0.87163181  1
  H  H187  1  0.50000000  0.23722103  0.29673220  1
  H  H188  1  0.50000000  0.23714547  0.63003331  1
  H  H189  1  0.50000000  0.23717798  0.96362260  1
  H  H190  1  0.50000000  0.76344111  0.62855878  1
  H  H191  1  0.50000000  0.76240943  0.96666801  1
  H  H192  1  0.50000000  0.61290253  0.28684586  1
  H  H193  1  0.50000000  0.65108319  0.01272427  1
  H  H194  1  0.50000000  0.70934449  0.01432681  1
  H  H195  1  0.50000000  0.61174137  0.04738206  1
  H  H196  1  0.50000000  0.61285803  0.38033264  1
  H  H197  1  0.50000000  0.61288585  0.11985120  1
  H  H198  1  0.50000000  0.61171911  0.45249193  1
  H  H199  1  0.50000000  0.61290837  0.21313748  1
  H  H200  1  0.50000000  0.65109209  0.48729535  1
  H  H201  1  0.50000000  0.70932220  0.48579264  1
