# generated using pymatgen
data_H19C78
_symmetry_space_group_name_H-M   'P 1'
_cell_length_a   20.00000000
_cell_length_b   37.22700000
_cell_length_c   25.89099742
_cell_angle_alpha   90.00000000
_cell_angle_beta   90.00000000
_cell_angle_gamma   90.00000000
_symmetry_Int_Tables_number   1
_chemical_formula_structural   H19C78
_chemical_formula_sum   'H38 C156'
_cell_volume   19276.88321585
_cell_formula_units_Z   2
loop_
 _symmetry_equiv_pos_site_id
 _symmetry_equiv_pos_as_xyz
  1  'x, y, z'
loop_
 _atom_site_type_symbol
 _atom_site_label
 _atom_site_symmetry_multiplicity
 _atom_site_fract_x
 _atom_site_fract_y
 _atom_site_fract_z
 _atom_site_occupancy
  C  C0  1  0.50000000  0.31359274  0.22197767  1
  C  C1  1  0.50000000  0.31747640  0.55661968  1
  C  C2  1  0.50000000  0.31809844  0.88789078  1
  C  C3  1  0.50000000  0.37974786  0.22233834  1
  C  C4  1  0.50000000  0.38399899  0.55596271  1
  C  C5  1  0.50000000  0.38451428  0.88894130  1
  C  C6  1  0.50000000  0.44553262  0.22252371  1
  C  C7  1  0.50000000  0.45106173  0.55477418  1
  C  C8  1  0.50000000  0.45115928  0.88918730  1
  C  C9  1  0.50000000  0.51138148  0.22370891  1
  C  C10  1  0.50000000  0.51792591  0.55658985  1
  C  C11  1  0.50000000  0.51767395  0.88800064  1
  C  C12  1  0.50000000  0.58502893  0.55954670  1
  C  C13  1  0.50000000  0.58495243  0.88606905  1
  C  C14  1  0.50000000  0.65021077  0.22194897  1
  C  C15  1  0.50000000  0.65180023  0.55697312  1
  C  C16  1  0.50000000  0.65168395  0.88760748  1
  C  C17  1  0.50000000  0.71577364  0.22348303  1
  C  C18  1  0.50000000  0.71731567  0.55746629  1
  C  C19  1  0.50000000  0.71730661  0.88953952  1
  C  C20  1  0.50000000  0.31359952  0.27802728  1
  C  C21  1  0.50000000  0.31809714  0.61209975  1
  C  C22  1  0.50000000  0.31746487  0.94337286  1
  C  C23  1  0.50000000  0.37975216  0.27766289  1
  C  C24  1  0.50000000  0.38451834  0.61104899  1
  C  C25  1  0.50000000  0.38398669  0.94403047  1
  C  C26  1  0.50000000  0.44553435  0.27747523  1
  C  C27  1  0.50000000  0.45115376  0.61081924  1
  C  C28  1  0.50000000  0.45105404  0.94523303  1
  C  C29  1  0.50000000  0.51137882  0.27624790  1
  C  C30  1  0.50000000  0.51768380  0.61199528  1
  C  C31  1  0.50000000  0.51790670  0.94339492  1
  C  C32  1  0.50000000  0.58495894  0.61392748  1
  C  C33  1  0.50000000  0.58502314  0.94043394  1
  C  C34  1  0.50000000  0.65020031  0.27810270  1
  C  C35  1  0.50000000  0.65169005  0.61238990  1
  C  C36  1  0.50000000  0.65177931  0.94303349  1
  C  C37  1  0.50000000  0.71575301  0.27654787  1
  C  C38  1  0.50000000  0.71730146  0.61045275  1
  C  C39  1  0.50000000  0.71731253  0.94254798  1
  C  C40  1  0.50000000  0.28146848  0.30789452  1
  C  C41  1  0.50000000  0.28573238  0.64107322  1
  C  C42  1  0.50000000  0.28454841  0.97130981  1
  C  C43  1  0.50000000  0.34676632  0.30585468  1
  C  C44  1  0.50000000  0.35142450  0.63923362  1
  C  C45  1  0.50000000  0.35026955  0.97148066  1
  C  C46  1  0.50000000  0.41281228  0.30582061  1
  C  C47  1  0.50000000  0.41806299  0.63868956  1
  C  C48  1  0.50000000  0.41707603  0.97239732  1
  C  C49  1  0.50000000  0.47862420  0.30414958  1
  C  C50  1  0.50000000  0.48428197  0.63927469  1
  C  C51  1  0.50000000  0.48420130  0.97337536  1
  C  C52  1  0.50000000  0.55107959  0.63999626  1
  C  C53  1  0.50000000  0.55223064  0.96546739  1
  C  C54  1  0.50000000  0.61790644  0.30763588  1
  C  C55  1  0.50000000  0.61838178  0.64079999  1
  C  C56  1  0.50000000  0.61841289  0.97041541  1
  C  C57  1  0.50000000  0.68330885  0.30578556  1
  C  C58  1  0.50000000  0.68483260  0.63941555  1
  C  C59  1  0.50000000  0.68471264  0.97118573  1
  C  C60  1  0.50000000  0.28355934  0.02432858  1
  C  C61  1  0.50000000  0.28199209  0.36115566  1
  C  C62  1  0.50000000  0.28595289  0.69396062  1
  C  C63  1  0.50000000  0.34910383  0.02701264  1
  C  C64  1  0.50000000  0.34736513  0.36169474  1
  C  C65  1  0.50000000  0.35163186  0.69466984  1
  C  C66  1  0.50000000  0.41565800  0.02764251  1
  C  C67  1  0.50000000  0.41344330  0.36102931  1
  C  C68  1  0.50000000  0.41811986  0.69422070  1
  C  C69  1  0.50000000  0.48238086  0.02925538  1
  C  C70  1  0.50000000  0.47877135  0.35878505  1
  C  C71  1  0.50000000  0.48432501  0.69443028  1
  C  C72  1  0.50000000  0.55106748  0.69521221  1
  C  C73  1  0.50000000  0.61913864  0.02430464  1
  C  C74  1  0.50000000  0.61819914  0.36081955  1
  C  C75  1  0.50000000  0.61817839  0.69524997  1
  C  C76  1  0.50000000  0.68454913  0.02688326  1
  C  C77  1  0.50000000  0.68357685  0.36177550  1
  C  C78  1  0.50000000  0.68478848  0.69492532  1
  C  C79  1  0.50000000  0.31556605  0.05418329  1
  C  C80  1  0.50000000  0.31462348  0.39000020  1
  C  C81  1  0.50000000  0.31861505  0.72226527  1
  C  C82  1  0.50000000  0.38196297  0.05531588  1
  C  C83  1  0.50000000  0.38076622  0.38948755  1
  C  C84  1  0.50000000  0.38498112  0.72236054  1
  C  C85  1  0.50000000  0.44839277  0.05600657  1
  C  C86  1  0.50000000  0.44681728  0.38834093  1
  C  C87  1  0.50000000  0.45114176  0.72221915  1
  C  C88  1  0.50000000  0.51286575  0.06257510  1
  C  C89  1  0.50000000  0.51152871  0.38516986  1
  C  C90  1  0.50000000  0.51770150  0.72244351  1
  C  C91  1  0.50000000  0.58449522  0.72256186  1
  C  C92  1  0.50000000  0.65109362  0.05378872  1
  C  C93  1  0.50000000  0.65069617  0.38983989  1
  C  C94  1  0.50000000  0.65166769  0.72247456  1
  C  C95  1  0.50000000  0.71677543  0.05654798  1
  C  C96  1  0.50000000  0.71634001  0.39038819  1
  C  C97  1  0.50000000  0.71726125  0.72349020  1
  C  C98  1  0.50000000  0.31461163  0.11000345  1
  C  C99  1  0.50000000  0.31558150  0.44581400  1
  C  C100  1  0.50000000  0.31862084  0.77770580  1
  C  C101  1  0.50000000  0.38075679  0.11051079  1
  C  C102  1  0.50000000  0.38197476  0.44467769  1
  C  C103  1  0.50000000  0.38496503  0.77756826  1
  C  C104  1  0.50000000  0.44680010  0.11165468  1
  C  C105  1  0.50000000  0.44841035  0.44398832  1
  C  C106  1  0.50000000  0.45113345  0.77777880  1
  C  C107  1  0.50000000  0.51151343  0.11482987  1
  C  C108  1  0.50000000  0.51287890  0.43744779  1
  C  C109  1  0.50000000  0.51770193  0.77755306  1
  C  C110  1  0.50000000  0.58449681  0.77743968  1
  C  C111  1  0.50000000  0.65066248  0.11015226  1
  C  C112  1  0.50000000  0.65111889  0.44621000  1
  C  C113  1  0.50000000  0.65167292  0.77754025  1
  C  C114  1  0.50000000  0.71632664  0.10962439  1
  C  C115  1  0.50000000  0.71678616  0.44344186  1
  C  C116  1  0.50000000  0.71727094  0.77651400  1
  C  C117  1  0.50000000  0.28197496  0.13884504  1
  C  C118  1  0.50000000  0.28357664  0.47566445  1
  C  C119  1  0.50000000  0.28596225  0.80602605  1
  C  C120  1  0.50000000  0.34735589  0.13830341  1
  C  C121  1  0.50000000  0.34911687  0.47298637  1
  C  C122  1  0.50000000  0.35163395  0.80531210  1
  C  C123  1  0.50000000  0.41343237  0.13897357  1
  C  C124  1  0.50000000  0.41567203  0.47233868  1
  C  C125  1  0.50000000  0.41810749  0.80576655  1
  C  C126  1  0.50000000  0.47875786  0.14121336  1
  C  C127  1  0.50000000  0.48239424  0.47074478  1
  C  C128  1  0.50000000  0.48432488  0.80557025  1
  C  C129  1  0.50000000  0.55106766  0.80479536  1
  C  C130  1  0.50000000  0.61817471  0.13922237  1
  C  C131  1  0.50000000  0.61916442  0.47570011  1
  C  C132  1  0.50000000  0.61817795  0.80475950  1
  C  C133  1  0.50000000  0.68355767  0.13824788  1
  C  C134  1  0.50000000  0.68456536  0.47312234  1
  C  C135  1  0.50000000  0.68479993  0.80507044  1
  C  C136  1  0.50000000  0.28145107  0.19212061  1
  C  C137  1  0.50000000  0.28456512  0.52867104  1
  C  C138  1  0.50000000  0.28574871  0.85890539  1
  C  C139  1  0.50000000  0.34675903  0.19414608  1
  C  C140  1  0.50000000  0.35028365  0.52851649  1
  C  C141  1  0.50000000  0.35142934  0.86074433  1
  C  C142  1  0.50000000  0.41280794  0.19417724  1
  C  C143  1  0.50000000  0.41708732  0.52759277  1
  C  C144  1  0.50000000  0.41807520  0.86133678  1
  C  C145  1  0.50000000  0.47861549  0.19584164  1
  C  C146  1  0.50000000  0.48421249  0.52663111  1
  C  C147  1  0.50000000  0.48427761  0.86071513  1
  C  C148  1  0.50000000  0.55224862  0.53448461  1
  C  C149  1  0.50000000  0.55107608  0.86000432  1
  C  C150  1  0.50000000  0.61790949  0.19242163  1
  C  C151  1  0.50000000  0.61843762  0.52958995  1
  C  C152  1  0.50000000  0.61837591  0.85920420  1
  C  C153  1  0.50000000  0.68332332  0.19427591  1
  C  C154  1  0.50000000  0.68472962  0.52881184  1
  C  C155  1  0.50000000  0.68483737  0.86056999  1
  H  H156  1  0.50000000  0.74169437  0.20363328  1
  H  H157  1  0.50000000  0.74312698  0.53735904  1
  H  H158  1  0.50000000  0.74313653  0.86950124  1
  H  H159  1  0.50000000  0.74169293  0.29633433  1
  H  H160  1  0.50000000  0.74317165  0.63035254  1
  H  H161  1  0.50000000  0.74308618  0.96279131  1
  H  H162  1  0.50000000  0.25535909  0.28851030  1
  H  H163  1  0.50000000  0.25985428  0.62125909  1
  H  H164  1  0.50000000  0.25906695  0.95038773  1
  H  H165  1  0.50000000  0.25735292  0.04342003  1
  H  H166  1  0.50000000  0.25625425  0.38145428  1
  H  H167  1  0.50000000  0.26024007  0.71425896  1
  H  H168  1  0.50000000  0.74286170  0.03710979  1
  H  H169  1  0.50000000  0.74211337  0.37012220  1
  H  H170  1  0.50000000  0.74306540  0.70340979  1
  H  H171  1  0.50000000  0.74207938  0.12995859  1
  H  H172  1  0.50000000  0.74290522  0.46275629  1
  H  H173  1  0.50000000  0.74309044  0.79655825  1
  H  H174  1  0.50000000  0.25626608  0.11844095  1
  H  H175  1  0.50000000  0.25735709  0.45661385  1
  H  H176  1  0.50000000  0.26021364  0.78586293  1
  H  H177  1  0.50000000  0.25536551  0.21159480  1
  H  H178  1  0.50000000  0.25905871  0.54950743  1
  H  H179  1  0.50000000  0.25985648  0.87865016  1
  H  H180  1  0.50000000  0.53700031  0.20348292  1
  H  H181  1  0.50000000  0.53700731  0.29642594  1
  H  H182  1  0.50000000  0.55569017  0.00600605  1
  H  H183  1  0.50000000  0.59195916  0.28791555  1
  H  H184  1  0.50000000  0.59395542  0.04567683  1
  H  H185  1  0.50000000  0.59242200  0.38099941  1
  H  H186  1  0.50000000  0.54002061  0.04963574  1
  H  H187  1  0.50000000  0.53688998  0.36431098  1
  H  H188  1  0.50000000  0.53686474  0.13577380  1
  H  H189  1  0.50000000  0.54001619  0.45046161  1
  H  H190  1  0.50000000  0.59240642  0.11900604  1
  H  H191  1  0.50000000  0.59397732  0.45434060  1
  H  H192  1  0.50000000  0.55572602  0.49391649  1
  H  H193  1  0.50000000  0.59199296  0.21225826  1
