# generated using pymatgen
data_H2C9
_symmetry_space_group_name_H-M   'P 1'
_cell_length_a   20.00000000
_cell_length_b   37.22700000
_cell_length_c   25.78331648
_cell_angle_alpha   90.00000000
_cell_angle_beta   90.00000000
_cell_angle_gamma   90.00000000
_symmetry_Int_Tables_number   1
_chemical_formula_structural   H2C9
_chemical_formula_sum   'H36 C162'
_cell_volume   19196.71045106
_cell_formula_units_Z   18
loop_
 _symmetry_equiv_pos_site_id
 _symmetry_equiv_pos_as_xyz
  1  'x, y, z'
loop_
 _atom_site_type_symbol
 _atom_site_label
 _atom_site_symmetry_multiplicity
 _atom_site_fract_x
 _atom_site_fract_y
 _atom_site_fract_z
 _atom_site_occupancy
  C  C0  1  0.50000000  0.31333975  0.22207759  1
  C  C1  1  0.50000000  0.31380666  0.55571744  1
  C  C2  1  0.50000000  0.31393064  0.88852775  1
  C  C3  1  0.50000000  0.37967786  0.22232978  1
  C  C4  1  0.50000000  0.38024248  0.55595874  1
  C  C5  1  0.50000000  0.38037459  0.88884651  1
  C  C6  1  0.50000000  0.44589519  0.22220882  1
  C  C7  1  0.50000000  0.44664734  0.55585124  1
  C  C8  1  0.50000000  0.44680726  0.88862280  1
  C  C9  1  0.50000000  0.51210308  0.22234252  1
  C  C10  1  0.50000000  0.51324446  0.55584958  1
  C  C11  1  0.50000000  0.51336307  0.88885720  1
  C  C12  1  0.50000000  0.57837436  0.22212482  1
  C  C13  1  0.50000000  0.58007222  0.55535629  1
  C  C14  1  0.50000000  0.57988008  0.88929383  1
  C  C15  1  0.50000000  0.64854093  0.55331934  1
  C  C16  1  0.50000000  0.64701225  0.89025946  1
  C  C17  1  0.50000000  0.75158239  0.22243372  1
  C  C18  1  0.50000000  0.71450853  0.56182217  1
  C  C19  1  0.50000000  0.71268860  0.88563858  1
  C  C20  1  0.50000000  0.31335115  0.27801131  1
  C  C21  1  0.50000000  0.31392224  0.61143044  1
  C  C22  1  0.50000000  0.31377972  0.94428502  1
  C  C23  1  0.50000000  0.37967852  0.27770142  1
  C  C24  1  0.50000000  0.38038190  0.61117703  1
  C  C25  1  0.50000000  0.38022362  0.94405890  1
  C  C26  1  0.50000000  0.44590261  0.27783693  1
  C  C27  1  0.50000000  0.44680568  0.61136755  1
  C  C28  1  0.50000000  0.44663248  0.94415284  1
  C  C29  1  0.50000000  0.51210128  0.27766585  1
  C  C30  1  0.50000000  0.51336945  0.61112228  1
  C  C31  1  0.50000000  0.51323511  0.94415243  1
  C  C32  1  0.50000000  0.57837388  0.27790055  1
  C  C33  1  0.50000000  0.57988722  0.61067993  1
  C  C34  1  0.50000000  0.58007299  0.94462492  1
  C  C35  1  0.50000000  0.64699672  0.60969420  1
  C  C36  1  0.50000000  0.64853894  0.94662464  1
  C  C37  1  0.50000000  0.75162244  0.27750970  1
  C  C38  1  0.50000000  0.71265152  0.61433321  1
  C  C39  1  0.50000000  0.71451432  0.93815737  1
  C  C40  1  0.50000000  0.28089758  0.30687746  1
  C  C41  1  0.50000000  0.28145930  0.64022364  1
  C  C42  1  0.50000000  0.28124452  0.97303705  1
  C  C43  1  0.50000000  0.34644499  0.30569662  1
  C  C44  1  0.50000000  0.34709506  0.63900145  1
  C  C45  1  0.50000000  0.34687722  0.97191042  1
  C  C46  1  0.50000000  0.41280569  0.30573329  1
  C  C47  1  0.50000000  0.41363784  0.63909017  1
  C  C48  1  0.50000000  0.41340929  0.97196151  1
  C  C49  1  0.50000000  0.47901988  0.30569602  1
  C  C50  1  0.50000000  0.48007624  0.63908384  1
  C  C51  1  0.50000000  0.47982299  0.97194577  1
  C  C52  1  0.50000000  0.54532635  0.30555739  1
  C  C53  1  0.50000000  0.54669987  0.63873250  1
  C  C54  1  0.50000000  0.54652038  0.97206182  1
  C  C55  1  0.50000000  0.61076312  0.30658535  1
  C  C56  1  0.50000000  0.61334764  0.63798092  1
  C  C57  1  0.50000000  0.61362763  0.97320713  1
  C  C58  1  0.50000000  0.72030583  0.30684772  1
  C  C59  1  0.50000000  0.67917693  0.63971532  1
  C  C60  1  0.50000000  0.68399038  0.97133680  1
  C  C61  1  0.50000000  0.28113183  0.02625190  1
  C  C62  1  0.50000000  0.28088227  0.36017549  1
  C  C63  1  0.50000000  0.28155093  0.69345582  1
  C  C64  1  0.50000000  0.34670292  0.02753308  1
  C  C65  1  0.50000000  0.34647659  0.36135603  1
  C  C66  1  0.50000000  0.34718242  0.69456888  1
  C  C67  1  0.50000000  0.41312772  0.02743895  1
  C  C68  1  0.50000000  0.41288858  0.36129198  1
  C  C69  1  0.50000000  0.41370705  0.69451419  1
  C  C70  1  0.50000000  0.47934472  0.02735647  1
  C  C71  1  0.50000000  0.47912628  0.36128275  1
  C  C72  1  0.50000000  0.48010184  0.69443183  1
  C  C73  1  0.50000000  0.54548058  0.02749364  1
  C  C74  1  0.50000000  0.54537630  0.36117977  1
  C  C75  1  0.50000000  0.54660664  0.69435051  1
  C  C76  1  0.50000000  0.61061533  0.02716507  1
  C  C77  1  0.50000000  0.61066229  0.35983405  1
  C  C78  1  0.50000000  0.61285848  0.69355517  1
  C  C79  1  0.50000000  0.69439291  0.02556071  1
  C  C80  1  0.50000000  0.71485466  0.36080656  1
  C  C81  1  0.50000000  0.67866986  0.69514225  1
  C  C82  1  0.50000000  0.31354894  0.05518015  1
  C  C83  1  0.50000000  0.31337741  0.38903884  1
  C  C84  1  0.50000000  0.31407443  0.72213846  1
  C  C85  1  0.50000000  0.37993326  0.05541465  1
  C  C86  1  0.50000000  0.37977003  0.38929308  1
  C  C87  1  0.50000000  0.38048932  0.72241553  1
  C  C88  1  0.50000000  0.44617149  0.05525704  1
  C  C89  1  0.50000000  0.44600661  0.38916107  1
  C  C90  1  0.50000000  0.44687798  0.72224374  1
  C  C91  1  0.50000000  0.51236946  0.05534101  1
  C  C92  1  0.50000000  0.51220593  0.38921763  1
  C  C93  1  0.50000000  0.51341412  0.72229577  1
  C  C94  1  0.50000000  0.57843795  0.05512296  1
  C  C95  1  0.50000000  0.57841161  0.38874423  1
  C  C96  1  0.50000000  0.57975413  0.72207159  1
  C  C97  1  0.50000000  0.64565116  0.72224368  1
  C  C98  1  0.50000000  0.72920398  0.04514020  1
  C  C99  1  0.50000000  0.73908320  0.40150156  1
  C  C100  1  0.50000000  0.71126886  0.72353375  1
  C  C101  1  0.50000000  0.31337487  0.11104072  1
  C  C102  1  0.50000000  0.31358108  0.44485682  1
  C  C103  1  0.50000000  0.31408081  0.77783077  1
  C  C104  1  0.50000000  0.37975931  0.11075339  1
  C  C105  1  0.50000000  0.37995053  0.44459887  1
  C  C106  1  0.50000000  0.38049258  0.77758982  1
  C  C107  1  0.50000000  0.44599470  0.11086086  1
  C  C108  1  0.50000000  0.44619488  0.44475172  1
  C  C109  1  0.50000000  0.44688945  0.77777720  1
  C  C110  1  0.50000000  0.51220156  0.11077020  1
  C  C111  1  0.50000000  0.51237079  0.44463980  1
  C  C112  1  0.50000000  0.51342040  0.77769591  1
  C  C113  1  0.50000000  0.57840155  0.11125739  1
  C  C114  1  0.50000000  0.57845113  0.44485603  1
  C  C115  1  0.50000000  0.57975923  0.77789353  1
  C  C116  1  0.50000000  0.64566379  0.77772311  1
  C  C117  1  0.50000000  0.73899313  0.09848834  1
  C  C118  1  0.50000000  0.72929485  0.45488715  1
  C  C119  1  0.50000000  0.71128886  0.77645574  1
  C  C120  1  0.50000000  0.28089098  0.13991916  1
  C  C121  1  0.50000000  0.28116810  0.47373236  1
  C  C122  1  0.50000000  0.28157223  0.80651711  1
  C  C123  1  0.50000000  0.34647207  0.13869557  1
  C  C124  1  0.50000000  0.34673761  0.47250701  1
  C  C125  1  0.50000000  0.34718237  0.80542725  1
  C  C126  1  0.50000000  0.41288685  0.13874161  1
  C  C127  1  0.50000000  0.41315279  0.47256752  1
  C  C128  1  0.50000000  0.41371489  0.80548739  1
  C  C129  1  0.50000000  0.47911775  0.13872304  1
  C  C130  1  0.50000000  0.47934774  0.47264089  1
  C  C131  1  0.50000000  0.48011462  0.80555168  1
  C  C132  1  0.50000000  0.54536250  0.13882953  1
  C  C133  1  0.50000000  0.54548978  0.47247877  1
  C  C134  1  0.50000000  0.54661675  0.80562299  1
  C  C135  1  0.50000000  0.61064923  0.14016984  1
  C  C136  1  0.50000000  0.61064143  0.47281700  1
  C  C137  1  0.50000000  0.61286450  0.80641103  1
  C  C138  1  0.50000000  0.71478043  0.13916136  1
  C  C139  1  0.50000000  0.69446939  0.47442639  1
  C  C140  1  0.50000000  0.67868941  0.80482556  1
  C  C141  1  0.50000000  0.28088210  0.19320779  1
  C  C142  1  0.50000000  0.28129041  0.52702307  1
  C  C143  1  0.50000000  0.28146999  0.85973586  1
  C  C144  1  0.50000000  0.34643741  0.19436849  1
  C  C145  1  0.50000000  0.34690458  0.52811068  1
  C  C146  1  0.50000000  0.34709042  0.86100060  1
  C  C147  1  0.50000000  0.41279670  0.19430393  1
  C  C148  1  0.50000000  0.41344009  0.52806706  1
  C  C149  1  0.50000000  0.41364103  0.86091152  1
  C  C150  1  0.50000000  0.47901570  0.19432930  1
  C  C151  1  0.50000000  0.47982671  0.52806599  1
  C  C152  1  0.50000000  0.48007114  0.86088659  1
  C  C153  1  0.50000000  0.54531899  0.19444524  1
  C  C154  1  0.50000000  0.54651974  0.52792527  1
  C  C155  1  0.50000000  0.54669855  0.86123821  1
  C  C156  1  0.50000000  0.61073839  0.19341073  1
  C  C157  1  0.50000000  0.61363284  0.52678740  1
  C  C158  1  0.50000000  0.61335026  0.86197777  1
  C  C159  1  0.50000000  0.72025345  0.19309855  1
  C  C160  1  0.50000000  0.68401364  0.52860651  1
  C  C161  1  0.50000000  0.67921348  0.86024062  1
  H  H162  1  0.50000000  0.77771148  0.20268360  1
  H  H163  1  0.50000000  0.74126458  0.54483360  1
  H  H164  1  0.50000000  0.73779038  0.86389462  1
  H  H165  1  0.50000000  0.77775371  0.29726625  1
  H  H166  1  0.50000000  0.73775162  0.63602061  1
  H  H167  1  0.50000000  0.74126285  0.95515411  1
  H  H168  1  0.50000000  0.25502252  0.28686611  1
  H  H169  1  0.50000000  0.25561077  0.62013473  1
  H  H170  1  0.50000000  0.25537770  0.95303922  1
  H  H171  1  0.50000000  0.25522377  0.04617848  1
  H  H172  1  0.50000000  0.25496398  0.38013113  1
  H  H173  1  0.50000000  0.25577452  0.71367761  1
  H  H174  1  0.50000000  0.75233987  0.01899070  1
  H  H175  1  0.50000000  0.76799599  0.39301363  1
  H  H176  1  0.50000000  0.73714004  0.70378676  1
  H  H177  1  0.50000000  0.76791217  0.10685407  1
  H  H178  1  0.50000000  0.75235392  0.48121393  1
  H  H179  1  0.50000000  0.73714689  0.79626019  1
  H  H180  1  0.50000000  0.25495114  0.12005879  1
  H  H181  1  0.50000000  0.25527871  0.45374586  1
  H  H182  1  0.50000000  0.25577548  0.78637812  1
  H  H183  1  0.50000000  0.25497205  0.21314577  1
  H  H184  1  0.50000000  0.25546665  0.54716630  1
  H  H185  1  0.50000000  0.25557395  0.87965936  1
  H  H186  1  0.50000000  0.63655973  0.28648684  1
  H  H187  1  0.50000000  0.69508387  0.28497575  1
  H  H188  1  0.50000000  0.63475211  0.04994568  1
  H  H189  1  0.50000000  0.63643095  0.37986719  1
  H  H190  1  0.50000000  0.67418034  0.05579212  1
  H  H191  1  0.50000000  0.68643143  0.37159300  1
  H  H192  1  0.50000000  0.63644170  0.12026626  1
  H  H193  1  0.50000000  0.63482582  0.45017707  1
  H  H194  1  0.50000000  0.68637954  0.12823317  1
  H  H195  1  0.50000000  0.67427813  0.44418536  1
  H  H196  1  0.50000000  0.63653244  0.21348527  1
  H  H197  1  0.50000000  0.69498324  0.21481136  1
