# generated using pymatgen
data_H7C45
_symmetry_space_group_name_H-M   'P 1'
_cell_length_a   10.00000000
_cell_length_b   41.10890000
_cell_length_c   25.93308317
_cell_angle_alpha   90.00000000
_cell_angle_beta   90.00000000
_cell_angle_gamma   90.00000000
_symmetry_Int_Tables_number   1
_chemical_formula_structural   H7C45
_chemical_formula_sum   'H28 C180'
_cell_volume   10660.80522625
_cell_formula_units_Z   4
loop_
 _symmetry_equiv_pos_site_id
 _symmetry_equiv_pos_as_xyz
  1  'x, y, z'
loop_
 _atom_site_type_symbol
 _atom_site_label
 _atom_site_symmetry_multiplicity
 _atom_site_fract_x
 _atom_site_fract_y
 _atom_site_fract_z
 _atom_site_occupancy
  C  C0  1  0.50000000  0.28940941  0.64067578  1
  C  C1  1  0.50000000  0.28612261  0.96457900  1
  C  C2  1  0.50000000  0.35141095  0.30433965  1
  C  C3  1  0.50000000  0.34962026  0.63904260  1
  C  C4  1  0.50000000  0.34849302  0.97289113  1
  C  C5  1  0.50000000  0.41096729  0.30584015  1
  C  C6  1  0.50000000  0.40951742  0.63867412  1
  C  C7  1  0.50000000  0.40936859  0.97243958  1
  C  C8  1  0.50000000  0.47028779  0.30584015  1
  C  C9  1  0.50000000  0.46977625  0.63876307  1
  C  C10  1  0.50000000  0.46979764  0.97193221  1
  C  C11  1  0.50000000  0.52971223  0.30584015  1
  C  C12  1  0.50000000  0.53022377  0.63876307  1
  C  C13  1  0.50000000  0.53020237  0.97193221  1
  C  C14  1  0.50000000  0.58903273  0.30584015  1
  C  C15  1  0.50000000  0.59048260  0.63867412  1
  C  C16  1  0.50000000  0.59063143  0.97243958  1
  C  C17  1  0.50000000  0.64858907  0.30433965  1
  C  C18  1  0.50000000  0.65037975  0.63904260  1
  C  C19  1  0.50000000  0.65150699  0.97289113  1
  C  C20  1  0.50000000  0.71059061  0.64067578  1
  C  C21  1  0.50000000  0.71387741  0.96457900  1
  C  C22  1  0.50000000  0.29014345  0.69598832  1
  C  C23  1  0.50000000  0.34963300  0.02891696  1
  C  C24  1  0.50000000  0.35163651  0.35939681  1
  C  C25  1  0.50000000  0.35007919  0.69435191  1
  C  C26  1  0.50000000  0.40995269  0.02767002  1
  C  C27  1  0.50000000  0.41082736  0.36101442  1
  C  C28  1  0.50000000  0.40979744  0.69418200  1
  C  C29  1  0.50000000  0.46995057  0.02739124  1
  C  C30  1  0.50000000  0.47023279  0.36139877  1
  C  C31  1  0.50000000  0.46988161  0.69445788  1
  C  C32  1  0.50000000  0.53004944  0.02739124  1
  C  C33  1  0.50000000  0.52976723  0.36139877  1
  C  C34  1  0.50000000  0.53011841  0.69445788  1
  C  C35  1  0.50000000  0.59004732  0.02767002  1
  C  C36  1  0.50000000  0.58917266  0.36101442  1
  C  C37  1  0.50000000  0.59020258  0.69418200  1
  C  C38  1  0.50000000  0.65036701  0.02891696  1
  C  C39  1  0.50000000  0.64836351  0.35939681  1
  C  C40  1  0.50000000  0.64992083  0.69435191  1
  C  C41  1  0.50000000  0.70985657  0.69598832  1
  C  C42  1  0.50000000  0.26077960  0.72367964  1
  C  C43  1  0.50000000  0.32173208  0.06118198  1
  C  C44  1  0.50000000  0.32230998  0.38633165  1
  C  C45  1  0.50000000  0.32013143  0.72251125  1
  C  C46  1  0.50000000  0.38005610  0.05586181  1
  C  C47  1  0.50000000  0.38077530  0.38849783  1
  C  C48  1  0.50000000  0.37989432  0.72210067  1
  C  C49  1  0.50000000  0.44014229  0.05529037  1
  C  C50  1  0.50000000  0.44046564  0.38921620  1
  C  C51  1  0.50000000  0.43992843  0.72215624  1
  C  C52  1  0.50000000  0.50000001  0.05516586  1
  C  C53  1  0.50000000  0.50000001  0.38947578  1
  C  C54  1  0.50000000  0.50000001  0.72228915  1
  C  C55  1  0.50000000  0.55985772  0.05529037  1
  C  C56  1  0.50000000  0.55953438  0.38921620  1
  C  C57  1  0.50000000  0.56007159  0.72215624  1
  C  C58  1  0.50000000  0.61994391  0.05586181  1
  C  C59  1  0.50000000  0.61922472  0.38849783  1
  C  C60  1  0.50000000  0.62010570  0.72210067  1
  C  C61  1  0.50000000  0.67826794  0.06118198  1
  C  C62  1  0.50000000  0.67769004  0.38633165  1
  C  C63  1  0.50000000  0.67986859  0.72251125  1
  C  C64  1  0.50000000  0.73922041  0.72367964  1
  C  C65  1  0.50000000  0.26078037  0.77631973  1
  C  C66  1  0.50000000  0.32231627  0.11365171  1
  C  C67  1  0.50000000  0.32172391  0.43880460  1
  C  C68  1  0.50000000  0.32013196  0.77749259  1
  C  C69  1  0.50000000  0.38078290  0.11150557  1
  C  C70  1  0.50000000  0.38005066  0.44414303  1
  C  C71  1  0.50000000  0.37989358  0.77789737  1
  C  C72  1  0.50000000  0.44047087  0.11078138  1
  C  C73  1  0.50000000  0.44014030  0.44471092  1
  C  C74  1  0.50000000  0.43992767  0.77784013  1
  C  C75  1  0.50000000  0.50000001  0.11052799  1
  C  C76  1  0.50000000  0.50000001  0.44483881  1
  C  C77  1  0.50000000  0.50000001  0.77770767  1
  C  C78  1  0.50000000  0.55952915  0.11078138  1
  C  C79  1  0.50000000  0.55985972  0.44471092  1
  C  C80  1  0.50000000  0.56007235  0.77784013  1
  C  C81  1  0.50000000  0.61921712  0.11150557  1
  C  C82  1  0.50000000  0.61994936  0.44414303  1
  C  C83  1  0.50000000  0.62010644  0.77789737  1
  C  C84  1  0.50000000  0.67768375  0.11365171  1
  C  C85  1  0.50000000  0.67827611  0.43880460  1
  C  C86  1  0.50000000  0.67986805  0.77749259  1
  C  C87  1  0.50000000  0.73921965  0.77631973  1
  C  C88  1  0.50000000  0.29014441  0.80401406  1
  C  C89  1  0.50000000  0.35164048  0.14059968  1
  C  C90  1  0.50000000  0.34962259  0.47108559  1
  C  C91  1  0.50000000  0.35008050  0.80565170  1
  C  C92  1  0.50000000  0.41083537  0.13898839  1
  C  C93  1  0.50000000  0.40994978  0.47233397  1
  C  C94  1  0.50000000  0.40979634  0.80581568  1
  C  C95  1  0.50000000  0.47023488  0.13860488  1
  C  C96  1  0.50000000  0.46994905  0.47261237  1
  C  C97  1  0.50000000  0.46988091  0.80553853  1
  C  C98  1  0.50000000  0.52976514  0.13860488  1
  C  C99  1  0.50000000  0.53005097  0.47261237  1
  C  C100  1  0.50000000  0.53011911  0.80553853  1
  C  C101  1  0.50000000  0.58916465  0.13898839  1
  C  C102  1  0.50000000  0.59005024  0.47233397  1
  C  C103  1  0.50000000  0.59020367  0.80581568  1
  C  C104  1  0.50000000  0.64835954  0.14059968  1
  C  C105  1  0.50000000  0.65037743  0.47108559  1
  C  C106  1  0.50000000  0.64991952  0.80565170  1
  C  C107  1  0.50000000  0.70985561  0.80401406  1
  C  C108  1  0.50000000  0.28612232  0.53544813  1
  C  C109  1  0.50000000  0.28941473  0.85933109  1
  C  C110  1  0.50000000  0.35141310  0.19565589  1
  C  C111  1  0.50000000  0.34848547  0.52711475  1
  C  C112  1  0.50000000  0.34962496  0.86096336  1
  C  C113  1  0.50000000  0.41096946  0.19416171  1
  C  C114  1  0.50000000  0.40936251  0.52756010  1
  C  C115  1  0.50000000  0.40951920  0.86132676  1
  C  C116  1  0.50000000  0.47028785  0.19416277  1
  C  C117  1  0.50000000  0.46979169  0.52807019  1
  C  C118  1  0.50000000  0.46977602  0.86123165  1
  C  C119  1  0.50000000  0.52971216  0.19416277  1
  C  C120  1  0.50000000  0.53020833  0.52807019  1
  C  C121  1  0.50000000  0.53022400  0.86123165  1
  C  C122  1  0.50000000  0.58903056  0.19416171  1
  C  C123  1  0.50000000  0.59063751  0.52756010  1
  C  C124  1  0.50000000  0.59048082  0.86132676  1
  C  C125  1  0.50000000  0.64858692  0.19565589  1
  C  C126  1  0.50000000  0.65151455  0.52711475  1
  C  C127  1  0.50000000  0.65037506  0.86096336  1
  C  C128  1  0.50000000  0.71387770  0.53544813  1
  C  C129  1  0.50000000  0.71058529  0.85933109  1
  C  C130  1  0.50000000  0.25755184  0.56360107  1
  C  C131  1  0.50000000  0.25898094  0.88355972  1
  C  C132  1  0.50000000  0.32187132  0.22359974  1
  C  C133  1  0.50000000  0.31791558  0.55655176  1
  C  C134  1  0.50000000  0.31913060  0.88808454  1
  C  C135  1  0.50000000  0.38124398  0.22248429  1
  C  C136  1  0.50000000  0.37867656  0.55481878  1
  C  C137  1  0.50000000  0.37934420  0.88916942  1
  C  C138  1  0.50000000  0.44067268  0.22221266  1
  C  C139  1  0.50000000  0.43959260  0.55553438  1
  C  C140  1  0.50000000  0.43975641  0.88894900  1
  C  C141  1  0.50000000  0.50000001  0.22227140  1
  C  C142  1  0.50000000  0.50000001  0.55582135  1
  C  C143  1  0.50000000  0.50000001  0.88885060  1
  C  C144  1  0.50000000  0.55932734  0.22221266  1
  C  C145  1  0.50000000  0.56040742  0.55553438  1
  C  C146  1  0.50000000  0.56024361  0.88894900  1
  C  C147  1  0.50000000  0.61875604  0.22248429  1
  C  C148  1  0.50000000  0.62132346  0.55481878  1
  C  C149  1  0.50000000  0.62065582  0.88916942  1
  C  C150  1  0.50000000  0.67812870  0.22359974  1
  C  C151  1  0.50000000  0.68208444  0.55655176  1
  C  C152  1  0.50000000  0.68086942  0.88808454  1
  C  C153  1  0.50000000  0.74244818  0.56360107  1
  C  C154  1  0.50000000  0.74101907  0.88355972  1
  C  C155  1  0.50000000  0.25897210  0.61645655  1
  C  C156  1  0.50000000  0.25755730  0.93641426  1
  C  C157  1  0.50000000  0.32187212  0.27638710  1
  C  C158  1  0.50000000  0.31912641  0.61192806  1
  C  C159  1  0.50000000  0.31791873  0.94346838  1
  C  C160  1  0.50000000  0.38124322  0.27751721  1
  C  C161  1  0.50000000  0.37934025  0.61083321  1
  C  C162  1  0.50000000  0.37868330  0.94518267  1
  C  C163  1  0.50000000  0.44067240  0.27779057  1
  C  C164  1  0.50000000  0.43975453  0.61104970  1
  C  C165  1  0.50000000  0.43959793  0.94446581  1
  C  C166  1  0.50000000  0.50000001  0.27773269  1
  C  C167  1  0.50000000  0.50000001  0.61114668  1
  C  C168  1  0.50000000  0.50000001  0.94417667  1
  C  C169  1  0.50000000  0.55932761  0.27779057  1
  C  C170  1  0.50000000  0.56024548  0.61104970  1
  C  C171  1  0.50000000  0.56040209  0.94446581  1
  C  C172  1  0.50000000  0.61875680  0.27751721  1
  C  C173  1  0.50000000  0.62065977  0.61083321  1
  C  C174  1  0.50000000  0.62131672  0.94518267  1
  C  C175  1  0.50000000  0.67812790  0.27638710  1
  C  C176  1  0.50000000  0.68087361  0.61192806  1
  C  C177  1  0.50000000  0.68208129  0.94346838  1
  C  C178  1  0.50000000  0.74102792  0.61645655  1
  C  C179  1  0.50000000  0.74244272  0.93641426  1
  H  H180  1  0.50000000  0.23734029  0.70414132  1
  H  H181  1  0.50000000  0.76265973  0.70414132  1
  H  H182  1  0.50000000  0.23734364  0.79586602  1
  H  H183  1  0.50000000  0.76265638  0.79586602  1
  H  H184  1  0.50000000  0.23423393  0.54317630  1
  H  H185  1  0.50000000  0.23639576  0.86171537  1
  H  H186  1  0.50000000  0.76576609  0.54317631  1
  H  H187  1  0.50000000  0.76360425  0.86171537  1
  H  H188  1  0.50000000  0.23639045  0.63830705  1
  H  H189  1  0.50000000  0.23422026  0.95678954  1
  H  H190  1  0.50000000  0.76360957  0.63830705  1
  H  H191  1  0.50000000  0.76577976  0.95678954  1
  H  H192  1  0.50000000  0.28098622  0.00489566  1
  H  H193  1  0.50000000  0.71901380  0.00489566  1
  H  H194  1  0.50000000  0.29740995  0.04710103  1
  H  H195  1  0.50000000  0.29906473  0.36614761  1
  H  H196  1  0.50000000  0.70259006  0.04710103  1
  H  H197  1  0.50000000  0.70093529  0.36614761  1
  H  H198  1  0.50000000  0.29905887  0.13379882  1
  H  H199  1  0.50000000  0.29739358  0.45285806  1
  H  H200  1  0.50000000  0.70094115  0.13379882  1
  H  H201  1  0.50000000  0.70260644  0.45285807  1
  H  H202  1  0.50000000  0.28101523  0.49512684  1
  H  H203  1  0.50000000  0.71898479  0.49512684  1
  H  H204  1  0.50000000  0.29856748  0.20347822  1
  H  H205  1  0.50000000  0.70143254  0.20347822  1
  H  H206  1  0.50000000  0.29856728  0.29650261  1
  H  H207  1  0.50000000  0.70143274  0.29650260  1
