# generated using pymatgen
data_H13C90
_symmetry_space_group_name_H-M   'P 1'
_cell_length_a   10.00000000
_cell_length_b   41.10890000
_cell_length_c   25.74860132
_cell_angle_alpha   90.00000000
_cell_angle_beta   90.00000000
_cell_angle_gamma   90.00000000
_symmetry_Int_Tables_number   1
_chemical_formula_structural   H13C90
_chemical_formula_sum   'H26 C180'
_cell_volume   10584.96676664
_cell_formula_units_Z   2
loop_
 _symmetry_equiv_pos_site_id
 _symmetry_equiv_pos_as_xyz
  1  'x, y, z'
loop_
 _atom_site_type_symbol
 _atom_site_label
 _atom_site_symmetry_multiplicity
 _atom_site_fract_x
 _atom_site_fract_y
 _atom_site_fract_z
 _atom_site_occupancy
  C  C0  1  0.50000000  0.28916796  0.63833472  1
  C  C1  1  0.50000000  0.28934333  0.97096452  1
  C  C2  1  0.50000000  0.35042849  0.30670722  1
  C  C3  1  0.50000000  0.34961920  0.63900666  1
  C  C4  1  0.50000000  0.35007985  0.97242401  1
  C  C5  1  0.50000000  0.40977863  0.30556125  1
  C  C6  1  0.50000000  0.40976000  0.63900942  1
  C  C7  1  0.50000000  0.40994749  0.97203685  1
  C  C8  1  0.50000000  0.47000603  0.30555901  1
  C  C9  1  0.50000000  0.46996276  0.63898245  1
  C  C10  1  0.50000000  0.47005427  0.97208981  1
  C  C11  1  0.50000000  0.53005025  0.30572268  1
  C  C12  1  0.50000000  0.52998734  0.63908741  1
  C  C13  1  0.50000000  0.53002929  0.97220289  1
  C  C14  1  0.50000000  0.59012717  0.30553578  1
  C  C15  1  0.50000000  0.59001730  0.63901771  1
  C  C16  1  0.50000000  0.59003010  0.97203524  1
  C  C17  1  0.50000000  0.65031969  0.30562223  1
  C  C18  1  0.50000000  0.65011482  0.63924477  1
  C  C19  1  0.50000000  0.65005885  0.97202742  1
  C  C20  1  0.50000000  0.70960104  0.30659481  1
  C  C21  1  0.50000000  0.71042681  0.63870314  1
  C  C22  1  0.50000000  0.70988259  0.97212225  1
  C  C23  1  0.50000000  0.28929035  0.69467509  1
  C  C24  1  0.50000000  0.35103505  0.02641487  1
  C  C25  1  0.50000000  0.35048123  0.36012330  1
  C  C26  1  0.50000000  0.34958018  0.69421674  1
  C  C27  1  0.50000000  0.41012077  0.02751853  1
  C  C28  1  0.50000000  0.40979743  0.36124597  1
  C  C29  1  0.50000000  0.40969113  0.69452164  1
  C  C30  1  0.50000000  0.47012228  0.02766990  1
  C  C31  1  0.50000000  0.47001628  0.36120641  1
  C  C32  1  0.50000000  0.46991482  0.69450595  1
  C  C33  1  0.50000000  0.53008227  0.02756113  1
  C  C34  1  0.50000000  0.53006631  0.36105555  1
  C  C35  1  0.50000000  0.52996353  0.69442331  1
  C  C36  1  0.50000000  0.59009721  0.02766416  1
  C  C37  1  0.50000000  0.59016940  0.36126483  1
  C  C38  1  0.50000000  0.59003143  0.69453188  1
  C  C39  1  0.50000000  0.65019868  0.02744843  1
  C  C40  1  0.50000000  0.65038217  0.36128583  1
  C  C41  1  0.50000000  0.65017887  0.69450336  1
  C  C42  1  0.50000000  0.70946346  0.02646720  1
  C  C43  1  0.50000000  0.70963140  0.36003491  1
  C  C44  1  0.50000000  0.71045280  0.69434051  1
  C  C45  1  0.50000000  0.25998886  0.72325615  1
  C  C46  1  0.50000000  0.31926064  0.72217096  1
  C  C47  1  0.50000000  0.38007157  0.05496833  1
  C  C48  1  0.50000000  0.37988271  0.38885653  1
  C  C49  1  0.50000000  0.37964132  0.72214468  1
  C  C50  1  0.50000000  0.44012420  0.05558212  1
  C  C51  1  0.50000000  0.44001629  0.38912913  1
  C  C52  1  0.50000000  0.43982833  0.72234870  1
  C  C53  1  0.50000000  0.50005132  0.05546638  1
  C  C54  1  0.50000000  0.49999969  0.38896012  1
  C  C55  1  0.50000000  0.49989998  0.72224657  1
  C  C56  1  0.50000000  0.56015600  0.05547728  1
  C  C57  1  0.50000000  0.56016989  0.38899295  1
  C  C58  1  0.50000000  0.56002063  0.72229041  1
  C  C59  1  0.50000000  0.62013833  0.05549581  1
  C  C60  1  0.50000000  0.62014596  0.38916927  1
  C  C61  1  0.50000000  0.62006149  0.72233118  1
  C  C62  1  0.50000000  0.68042985  0.05491101  1
  C  C63  1  0.50000000  0.68033146  0.38879821  1
  C  C64  1  0.50000000  0.68038084  0.72215667  1
  C  C65  1  0.50000000  0.73992642  0.72337225  1
  C  C66  1  0.50000000  0.25998925  0.77674742  1
  C  C67  1  0.50000000  0.31925985  0.77783647  1
  C  C68  1  0.50000000  0.37988481  0.11114981  1
  C  C69  1  0.50000000  0.38007387  0.44503524  1
  C  C70  1  0.50000000  0.37963988  0.77785636  1
  C  C71  1  0.50000000  0.44001722  0.11087792  1
  C  C72  1  0.50000000  0.44012515  0.44442283  1
  C  C73  1  0.50000000  0.43982746  0.77765843  1
  C  C74  1  0.50000000  0.50000239  0.11104740  1
  C  C75  1  0.50000000  0.50004909  0.44454140  1
  C  C76  1  0.50000000  0.49990025  0.77775770  1
  C  C77  1  0.50000000  0.56017232  0.11100985  1
  C  C78  1  0.50000000  0.56015366  0.44452624  1
  C  C79  1  0.50000000  0.56002022  0.77770968  1
  C  C80  1  0.50000000  0.62014935  0.11082702  1
  C  C81  1  0.50000000  0.62013481  0.44450083  1
  C  C82  1  0.50000000  0.62006130  0.77766790  1
  C  C83  1  0.50000000  0.68033506  0.11119575  1
  C  C84  1  0.50000000  0.68042622  0.44508327  1
  C  C85  1  0.50000000  0.68038061  0.77783609  1
  C  C86  1  0.50000000  0.73992673  0.77661387  1
  C  C87  1  0.50000000  0.28928743  0.80532998  1
  C  C88  1  0.50000000  0.35048569  0.13988480  1
  C  C89  1  0.50000000  0.35104116  0.47360289  1
  C  C90  1  0.50000000  0.34957872  0.80579192  1
  C  C91  1  0.50000000  0.40979933  0.13876028  1
  C  C92  1  0.50000000  0.41012181  0.47249099  1
  C  C93  1  0.50000000  0.40969160  0.80548138  1
  C  C94  1  0.50000000  0.47001927  0.13880148  1
  C  C95  1  0.50000000  0.47012205  0.47233947  1
  C  C96  1  0.50000000  0.46991548  0.80550194  1
  C  C97  1  0.50000000  0.53006880  0.13894908  1
  C  C98  1  0.50000000  0.53008012  0.47244629  1
  C  C99  1  0.50000000  0.52996378  0.80558063  1
  C  C100  1  0.50000000  0.59017263  0.13873292  1
  C  C101  1  0.50000000  0.59009530  0.47233633  1
  C  C102  1  0.50000000  0.59003058  0.80546666  1
  C  C103  1  0.50000000  0.65038540  0.13870915  1
  C  C104  1  0.50000000  0.65019592  0.47254607  1
  C  C105  1  0.50000000  0.65017856  0.80549329  1
  C  C106  1  0.50000000  0.70963413  0.13996080  1
  C  C107  1  0.50000000  0.70945963  0.47353029  1
  C  C108  1  0.50000000  0.71045262  0.80564754  1
  C  C109  1  0.50000000  0.28935261  0.52902130  1
  C  C110  1  0.50000000  0.28916506  0.86166055  1
  C  C111  1  0.50000000  0.35043236  0.19329515  1
  C  C112  1  0.50000000  0.35008398  0.52757891  1
  C  C113  1  0.50000000  0.34961997  0.86099787  1
  C  C114  1  0.50000000  0.40977953  0.19444457  1
  C  C115  1  0.50000000  0.40994882  0.52796878  1
  C  C116  1  0.50000000  0.40976273  0.86099346  1
  C  C117  1  0.50000000  0.47000721  0.19444904  1
  C  C118  1  0.50000000  0.47005413  0.52791875  1
  C  C119  1  0.50000000  0.46996411  0.86102546  1
  C  C120  1  0.50000000  0.53005138  0.19428185  1
  C  C121  1  0.50000000  0.53002904  0.52780433  1
  C  C122  1  0.50000000  0.52998683  0.86091698  1
  C  C123  1  0.50000000  0.59012811  0.19446169  1
  C  C124  1  0.50000000  0.59002976  0.52796563  1
  C  C125  1  0.50000000  0.59001575  0.86098099  1
  C  C126  1  0.50000000  0.65032106  0.19437264  1
  C  C127  1  0.50000000  0.65005881  0.52796680  1
  C  C128  1  0.50000000  0.65011381  0.86075079  1
  C  C129  1  0.50000000  0.70960110  0.19339940  1
  C  C130  1  0.50000000  0.70988290  0.52787274  1
  C  C131  1  0.50000000  0.71042492  0.86128423  1
  C  C132  1  0.50000000  0.25997349  0.55598447  1
  C  C133  1  0.50000000  0.25987016  0.89004487  1
  C  C134  1  0.50000000  0.31922404  0.55544822  1
  C  C135  1  0.50000000  0.31935451  0.88911594  1
  C  C136  1  0.50000000  0.37980407  0.22205235  1
  C  C137  1  0.50000000  0.37999128  0.55579054  1
  C  C138  1  0.50000000  0.37980915  0.88866358  1
  C  C139  1  0.50000000  0.43993826  0.22237944  1
  C  C140  1  0.50000000  0.44003102  0.55585277  1
  C  C141  1  0.50000000  0.43992570  0.88888786  1
  C  C142  1  0.50000000  0.49995349  0.22218236  1
  C  C143  1  0.50000000  0.49999173  0.55569276  1
  C  C144  1  0.50000000  0.49995156  0.88877673  1
  C  C145  1  0.50000000  0.56017642  0.22219484  1
  C  C146  1  0.50000000  0.56005860  0.55573791  1
  C  C147  1  0.50000000  0.56005055  0.88878737  1
  C  C148  1  0.50000000  0.62016312  0.22234873  1
  C  C149  1  0.50000000  0.61996570  0.55586890  1
  C  C150  1  0.50000000  0.62005268  0.88876839  1
  C  C151  1  0.50000000  0.68024359  0.22200407  1
  C  C152  1  0.50000000  0.67989817  0.55596650  1
  C  C153  1  0.50000000  0.68021446  0.88854542  1
  C  C154  1  0.50000000  0.73972517  0.55615895  1
  C  C155  1  0.50000000  0.73993805  0.89066861  1
  C  C156  1  0.50000000  0.25987093  0.60992654  1
  C  C157  1  0.50000000  0.25996966  0.94398021  1
  C  C158  1  0.50000000  0.31935734  0.61087912  1
  C  C159  1  0.50000000  0.31922521  0.94454489  1
  C  C160  1  0.50000000  0.37980260  0.27795698  1
  C  C161  1  0.50000000  0.37980651  0.61134461  1
  C  C162  1  0.50000000  0.37999129  0.94421748  1
  C  C163  1  0.50000000  0.43993744  0.27762810  1
  C  C164  1  0.50000000  0.43992363  0.61112163  1
  C  C165  1  0.50000000  0.44003185  0.94415595  1
  C  C166  1  0.50000000  0.49995252  0.27782415  1
  C  C167  1  0.50000000  0.49995117  0.61123127  1
  C  C168  1  0.50000000  0.49999144  0.94431561  1
  C  C169  1  0.50000000  0.56017529  0.27780515  1
  C  C170  1  0.50000000  0.56005160  0.61121575  1
  C  C171  1  0.50000000  0.56005900  0.94426601  1
  C  C172  1  0.50000000  0.62016242  0.27764531  1
  C  C173  1  0.50000000  0.62005393  0.61122755  1
  C  C174  1  0.50000000  0.61996442  0.94412687  1
  C  C175  1  0.50000000  0.68024265  0.27799099  1
  C  C176  1  0.50000000  0.68021502  0.61144741  1
  C  C177  1  0.50000000  0.67989759  0.94402647  1
  C  C178  1  0.50000000  0.73994164  0.60932162  1
  C  C179  1  0.50000000  0.73972183  0.94382728  1
  H  H180  1  0.50000000  0.23658613  0.70314210  1
  H  H181  1  0.50000000  0.76330703  0.70318431  1
  H  H182  1  0.50000000  0.23659720  0.79687038  1
  H  H183  1  0.50000000  0.76330873  0.79679756  1
  H  H184  1  0.50000000  0.23689786  0.53468716  1
  H  H185  1  0.50000000  0.23646672  0.86997676  1
  H  H186  1  0.50000000  0.76267019  0.53448806  1
  H  H187  1  0.50000000  0.76339356  0.87069173  1
  H  H188  1  0.50000000  0.23647035  0.62999374  1
  H  H189  1  0.50000000  0.23690041  0.96531497  1
  H  H190  1  0.50000000  0.76340037  0.62928403  1
  H  H191  1  0.50000000  0.76266439  0.96550590  1
  H  H192  1  0.50000000  0.28862484  0.01338555  1
  H  H193  1  0.50000000  0.32703442  0.28655935  1
  H  H194  1  0.50000000  0.73289402  0.28624272  1
  H  H195  1  0.50000000  0.32817183  0.04760008  1
  H  H196  1  0.50000000  0.32706750  0.38024377  1
  H  H197  1  0.50000000  0.73292108  0.04638502  1
  H  H198  1  0.50000000  0.73296817  0.38028255  1
  H  H199  1  0.50000000  0.32706624  0.11978623  1
  H  H200  1  0.50000000  0.32817685  0.45242807  1
  H  H201  1  0.50000000  0.73298149  0.11974450  1
  H  H202  1  0.50000000  0.73291985  0.45362423  1
  H  H203  1  0.50000000  0.28865394  0.48659179  1
  H  H204  1  0.50000000  0.32702934  0.21341646  1
  H  H205  1  0.50000000  0.73290272  0.21372546  1
