# generated using pymatgen
data_H19C81
_symmetry_space_group_name_H-M   'P 1'
_cell_length_a   20.00000000
_cell_length_b   37.22700000
_cell_length_c   25.88681668
_cell_angle_alpha   90.00000000
_cell_angle_beta   90.00000000
_cell_angle_gamma   90.00000000
_symmetry_Int_Tables_number   1
_chemical_formula_structural   H19C81
_chemical_formula_sum   'H38 C162'
_cell_volume   19273.77049227
_cell_formula_units_Z   2
loop_
 _symmetry_equiv_pos_site_id
 _symmetry_equiv_pos_as_xyz
  1  'x, y, z'
loop_
 _atom_site_type_symbol
 _atom_site_label
 _atom_site_symmetry_multiplicity
 _atom_site_fract_x
 _atom_site_fract_y
 _atom_site_fract_z
 _atom_site_occupancy
  C  C0  1  0.50000000  0.30765299  0.22179730  1
  C  C1  1  0.50000000  0.31344525  0.55754783  1
  C  C2  1  0.50000000  0.31468609  0.88736539  1
  C  C3  1  0.50000000  0.37372763  0.22231804  1
  C  C4  1  0.50000000  0.38007306  0.55636797  1
  C  C5  1  0.50000000  0.38125377  0.88870732  1
  C  C6  1  0.50000000  0.43933779  0.22256988  1
  C  C7  1  0.50000000  0.44746679  0.55494917  1
  C  C8  1  0.50000000  0.44815425  0.88914254  1
  C  C9  1  0.50000000  0.50488828  0.22374754  1
  C  C10  1  0.50000000  0.51535649  0.55601191  1
  C  C11  1  0.50000000  0.51527231  0.88862842  1
  C  C12  1  0.50000000  0.60254949  0.22376864  1
  C  C13  1  0.50000000  0.58438344  0.55635762  1
  C  C14  1  0.50000000  0.58349603  0.88829216  1
  C  C15  1  0.50000000  0.66839460  0.22208367  1
  C  C16  1  0.50000000  0.65203466  0.55627364  1
  C  C17  1  0.50000000  0.65031913  0.88800055  1
  C  C18  1  0.50000000  0.73301943  0.22296874  1
  C  C19  1  0.50000000  0.71832867  0.56209006  1
  C  C20  1  0.50000000  0.71645073  0.88533803  1
  C  C21  1  0.50000000  0.30765549  0.27806211  1
  C  C22  1  0.50000000  0.31457094  0.61292436  1
  C  C23  1  0.50000000  0.31359438  0.94265064  1
  C  C24  1  0.50000000  0.37371715  0.27769928  1
  C  C25  1  0.50000000  0.38115127  0.61140644  1
  C  C26  1  0.50000000  0.38016795  0.94372080  1
  C  C27  1  0.50000000  0.43933923  0.27747537  1
  C  C28  1  0.50000000  0.44812118  0.61094235  1
  C  C29  1  0.50000000  0.44752019  0.94514519  1
  C  C30  1  0.50000000  0.50489775  0.27622335  1
  C  C31  1  0.50000000  0.51527124  0.61139574  1
  C  C32  1  0.50000000  0.51537240  0.94399309  1
  C  C33  1  0.50000000  0.60254664  0.27596788  1
  C  C34  1  0.50000000  0.58347796  0.61175407  1
  C  C35  1  0.50000000  0.58442018  0.94367145  1
  C  C36  1  0.50000000  0.66840392  0.27775693  1
  C  C37  1  0.50000000  0.65031484  0.61203493  1
  C  C38  1  0.50000000  0.65207558  0.94373140  1
  C  C39  1  0.50000000  0.73304233  0.27678516  1
  C  C40  1  0.50000000  0.71646362  0.61458572  1
  C  C41  1  0.50000000  0.71837011  0.93781113  1
  C  C42  1  0.50000000  0.27567117  0.30836043  1
  C  C43  1  0.50000000  0.28230192  0.64198991  1
  C  C44  1  0.50000000  0.28041919  0.97002404  1
  C  C45  1  0.50000000  0.34082748  0.30602161  1
  C  C46  1  0.50000000  0.34812333  0.63966424  1
  C  C47  1  0.50000000  0.34618861  0.97098047  1
  C  C48  1  0.50000000  0.40674347  0.30589484  1
  C  C49  1  0.50000000  0.41497621  0.63887349  1
  C  C50  1  0.50000000  0.41309822  0.97218289  1
  C  C51  1  0.50000000  0.47233282  0.30414157  1
  C  C52  1  0.50000000  0.48170987  0.63905785  1
  C  C53  1  0.50000000  0.48061001  0.97350815  1
  C  C54  1  0.50000000  0.54925217  0.63867209  1
  C  C55  1  0.50000000  0.55011515  0.96619569  1
  C  C56  1  0.50000000  0.63497947  0.30408295  1
  C  C57  1  0.50000000  0.61653185  0.63974561  1
  C  C58  1  0.50000000  0.61961049  0.97340708  1
  C  C59  1  0.50000000  0.70086606  0.30735089  1
  C  C60  1  0.50000000  0.68285221  0.64052020  1
  C  C61  1  0.50000000  0.68701688  0.96868308  1
  C  C62  1  0.50000000  0.27890006  0.02301293  1
  C  C63  1  0.50000000  0.27631741  0.36174517  1
  C  C64  1  0.50000000  0.28277562  0.69478059  1
  C  C65  1  0.50000000  0.34430514  0.02647602  1
  C  C66  1  0.50000000  0.34163283  0.36200264  1
  C  C67  1  0.50000000  0.34860734  0.69499320  1
  C  C68  1  0.50000000  0.41060441  0.02737868  1
  C  C69  1  0.50000000  0.40757687  0.36109655  1
  C  C70  1  0.50000000  0.41533635  0.69441439  1
  C  C71  1  0.50000000  0.47679226  0.02926006  1
  C  C72  1  0.50000000  0.47267710  0.35875188  1
  C  C73  1  0.50000000  0.48189590  0.69440936  1
  C  C74  1  0.50000000  0.54892616  0.69444808  1
  C  C75  1  0.50000000  0.62514053  0.02901866  1
  C  C76  1  0.50000000  0.63336054  0.35858593  1
  C  C77  1  0.50000000  0.61575963  0.69464127  1
  C  C78  1  0.50000000  0.69148770  0.02372450  1
  C  C79  1  0.50000000  0.69880192  0.36382863  1
  C  C80  1  0.50000000  0.68213138  0.69559042  1
  C  C81  1  0.50000000  0.31059207  0.05341239  1
  C  C82  1  0.50000000  0.30903924  0.39062651  1
  C  C83  1  0.50000000  0.31561262  0.72254797  1
  C  C84  1  0.50000000  0.37684747  0.05502280  1
  C  C85  1  0.50000000  0.37510883  0.38977483  1
  C  C86  1  0.50000000  0.38208550  0.72252245  1
  C  C87  1  0.50000000  0.44288878  0.05595618  1
  C  C88  1  0.50000000  0.44093135  0.38843230  1
  C  C89  1  0.50000000  0.44860015  0.72224573  1
  C  C90  1  0.50000000  0.50646131  0.06275764  1
  C  C91  1  0.50000000  0.50531898  0.38516188  1
  C  C92  1  0.50000000  0.51547772  0.72234483  1
  C  C93  1  0.50000000  0.59647720  0.06443640  1
  C  C94  1  0.50000000  0.59989851  0.38331674  1
  C  C95  1  0.50000000  0.58217782  0.72230756  1
  C  C96  1  0.50000000  0.66018864  0.05429784  1
  C  C97  1  0.50000000  0.66442630  0.38972254  1
  C  C98  1  0.50000000  0.64892300  0.72249438  1
  C  C99  1  0.50000000  0.72559980  0.04954068  1
  C  C100  1  0.50000000  0.72920953  0.39722145  1
  C  C101  1  0.50000000  0.71470982  0.72378691  1
  C  C102  1  0.50000000  0.30914662  0.10931237  1
  C  C103  1  0.50000000  0.31048432  0.44657652  1
  C  C104  1  0.50000000  0.31561344  0.77776947  1
  C  C105  1  0.50000000  0.37518188  0.11026083  1
  C  C106  1  0.50000000  0.37675493  0.44504601  1
  C  C107  1  0.50000000  0.38210050  0.77763603  1
  C  C108  1  0.50000000  0.44096841  0.11161374  1
  C  C109  1  0.50000000  0.44281452  0.44410072  1
  C  C110  1  0.50000000  0.44862264  0.77780277  1
  C  C111  1  0.50000000  0.50535999  0.11494011  1
  C  C112  1  0.50000000  0.50637366  0.43733302  1
  C  C113  1  0.50000000  0.51550638  0.77775933  1
  C  C114  1  0.50000000  0.59986343  0.11648799  1
  C  C115  1  0.50000000  0.59641905  0.43536562  1
  C  C116  1  0.50000000  0.58218175  0.77774707  1
  C  C117  1  0.50000000  0.66442530  0.11015520  1
  C  C118  1  0.50000000  0.66012095  0.44561401  1
  C  C119  1  0.50000000  0.64890062  0.77753120  1
  C  C120  1  0.50000000  0.72922716  0.10267006  1
  C  C121  1  0.50000000  0.72552638  0.45035022  1
  C  C122  1  0.50000000  0.71466483  0.77640027  1
  C  C123  1  0.50000000  0.27638702  0.13804134  1
  C  C124  1  0.50000000  0.27878583  0.47700456  1
  C  C125  1  0.50000000  0.28280365  0.80566496  1
  C  C126  1  0.50000000  0.34170785  0.13797853  1
  C  C127  1  0.50000000  0.34418472  0.47358987  1
  C  C128  1  0.50000000  0.34864085  0.80523430  1
  C  C129  1  0.50000000  0.40762254  0.13895028  1
  C  C130  1  0.50000000  0.41053055  0.47269003  1
  C  C131  1  0.50000000  0.41537751  0.80567905  1
  C  C132  1  0.50000000  0.47269418  0.14128628  1
  C  C133  1  0.50000000  0.47671153  0.47083063  1
  C  C134  1  0.50000000  0.48192313  0.80561948  1
  C  C135  1  0.50000000  0.54894411  0.80563229  1
  C  C136  1  0.50000000  0.63333242  0.14123927  1
  C  C137  1  0.50000000  0.62504241  0.47091652  1
  C  C138  1  0.50000000  0.61575686  0.80540831  1
  C  C139  1  0.50000000  0.69879179  0.13602905  1
  C  C140  1  0.50000000  0.69141480  0.47621357  1
  C  C141  1  0.50000000  0.68207367  0.80447446  1
  C  C142  1  0.50000000  0.27567449  0.19142668  1
  C  C143  1  0.50000000  0.28028961  0.53002173  1
  C  C144  1  0.50000000  0.28239801  0.85843754  1
  C  C145  1  0.50000000  0.34086005  0.19394502  1
  C  C146  1  0.50000000  0.34604903  0.52914343  1
  C  C147  1  0.50000000  0.34820746  0.86053296  1
  C  C148  1  0.50000000  0.40675560  0.19414398  1
  C  C149  1  0.50000000  0.41303199  0.52791430  1
  C  C150  1  0.50000000  0.41503520  0.86121785  1
  C  C151  1  0.50000000  0.47231939  0.19588520  1
  C  C152  1  0.50000000  0.48054832  0.52657107  1
  C  C153  1  0.50000000  0.48172522  0.86097247  1
  C  C154  1  0.50000000  0.55010225  0.53373493  1
  C  C155  1  0.50000000  0.54926688  0.86139251  1
  C  C156  1  0.50000000  0.63498642  0.19572671  1
  C  C157  1  0.50000000  0.61956037  0.52658908  1
  C  C158  1  0.50000000  0.61653976  0.86028884  1
  C  C159  1  0.50000000  0.70083479  0.19247895  1
  C  C160  1  0.50000000  0.68695419  0.53127339  1
  C  C161  1  0.50000000  0.68281726  0.85950601  1
  H  H162  1  0.50000000  0.75915697  0.20344088  1
  H  H163  1  0.50000000  0.74471319  0.54370168  1
  H  H164  1  0.50000000  0.74152016  0.86361073  1
  H  H165  1  0.50000000  0.75925334  0.29607978  1
  H  H166  1  0.50000000  0.74159160  0.63616304  1
  H  H167  1  0.50000000  0.74481237  0.95599512  1
  H  H168  1  0.50000000  0.24948806  0.28914023  1
  H  H169  1  0.50000000  0.25633136  0.62246808  1
  H  H170  1  0.50000000  0.25501944  0.94892692  1
  H  H171  1  0.50000000  0.25254546  0.04159981  1
  H  H172  1  0.50000000  0.25047385  0.38189378  1
  H  H173  1  0.50000000  0.25717381  0.71531831  1
  H  H174  1  0.50000000  0.75031356  0.02674803  1
  H  H175  1  0.50000000  0.75638396  0.38094392  1
  H  H176  1  0.50000000  0.74056668  0.70412061  1
  H  H177  1  0.50000000  0.75638056  0.11900332  1
  H  H178  1  0.50000000  0.75029378  0.47299377  1
  H  H179  1  0.50000000  0.74042166  0.79633406  1
  H  H180  1  0.50000000  0.25065931  0.11756131  1
  H  H181  1  0.50000000  0.25245153  0.45828444  1
  H  H182  1  0.50000000  0.25710259  0.78543883  1
  H  H183  1  0.50000000  0.24945193  0.21053881  1
  H  H184  1  0.50000000  0.25494538  0.55129747  1
  H  H185  1  0.50000000  0.25649931  0.87814610  1
  H  H186  1  0.50000000  0.53032869  0.20342769  1
  H  H187  1  0.50000000  0.57704829  0.20379808  1
  H  H188  1  0.50000000  0.53038226  0.29640681  1
  H  H189  1  0.50000000  0.57697749  0.29572567  1
  H  H190  1  0.50000000  0.55137526  0.00656169  1
  H  H191  1  0.50000000  0.53257771  0.04740248  1
  H  H192  1  0.50000000  0.53056557  0.36450972  1
  H  H193  1  0.50000000  0.56951646  0.05155754  1
  H  H194  1  0.50000000  0.57550895  0.36069628  1
  H  H195  1  0.50000000  0.53052255  0.13581534  1
  H  H196  1  0.50000000  0.53250835  0.45261415  1
  H  H197  1  0.50000000  0.57540319  0.13892490  1
  H  H198  1  0.50000000  0.56934572  0.44781396  1
  H  H199  1  0.50000000  0.55148338  0.49332958  1
