# generated using pymatgen
data_H2C9
_symmetry_space_group_name_H-M   'P 1'
_cell_length_a   10.00000000
_cell_length_b   41.10890000
_cell_length_c   25.92244227
_cell_angle_alpha   90.00000000
_cell_angle_beta   90.00000000
_cell_angle_gamma   90.00000000
_symmetry_Int_Tables_number   1
_chemical_formula_structural   H2C9
_chemical_formula_sum   'H40 C180'
_cell_volume   10656.43086871
_cell_formula_units_Z   20
loop_
 _symmetry_equiv_pos_site_id
 _symmetry_equiv_pos_as_xyz
  1  'x, y, z'
loop_
 _atom_site_type_symbol
 _atom_site_label
 _atom_site_symmetry_multiplicity
 _atom_site_fract_x
 _atom_site_fract_y
 _atom_site_fract_z
 _atom_site_occupancy
  C  C0  1  0.50000000  0.28599627  0.30593172  1
  C  C1  1  0.50000000  0.29067689  0.63917461  1
  C  C2  1  0.50000000  0.28948638  0.97097511  1
  C  C3  1  0.50000000  0.34584841  0.30588875  1
  C  C4  1  0.50000000  0.35089383  0.63872384  1
  C  C5  1  0.50000000  0.34988568  0.97256211  1
  C  C6  1  0.50000000  0.40552908  0.30402163  1
  C  C7  1  0.50000000  0.41070219  0.63900738  1
  C  C8  1  0.50000000  0.41056867  0.97346359  1
  C  C9  1  0.50000000  0.47078904  0.64038039  1
  C  C10  1  0.50000000  0.47221073  0.96580339  1
  C  C11  1  0.50000000  0.53170618  0.64104989  1
  C  C12  1  0.50000000  0.53119458  0.96713374  1
  C  C13  1  0.50000000  0.59106913  0.30722191  1
  C  C14  1  0.50000000  0.59178532  0.63976958  1
  C  C15  1  0.50000000  0.59168833  0.97112170  1
  C  C16  1  0.50000000  0.65007371  0.30578421  1
  C  C17  1  0.50000000  0.65169470  0.63918879  1
  C  C18  1  0.50000000  0.65135931  0.97188356  1
  C  C19  1  0.50000000  0.71022062  0.30515964  1
  C  C20  1  0.50000000  0.71179307  0.63849803  1
  C  C21  1  0.50000000  0.71144775  0.97216907  1
  C  C22  1  0.50000000  0.28842904  0.02677120  1
  C  C23  1  0.50000000  0.28656784  0.36207324  1
  C  C24  1  0.50000000  0.29084358  0.69496621  1
  C  C25  1  0.50000000  0.34854867  0.02764501  1
  C  C26  1  0.50000000  0.34643818  0.36093357  1
  C  C27  1  0.50000000  0.35091267  0.69423779  1
  C  C28  1  0.50000000  0.40886158  0.02948847  1
  C  C29  1  0.50000000  0.40569066  0.35888234  1
  C  C30  1  0.50000000  0.41067184  0.69438965  1
  C  C31  1  0.50000000  0.47078579  0.69542286  1
  C  C32  1  0.50000000  0.53157371  0.69584259  1
  C  C33  1  0.50000000  0.59216769  0.02515150  1
  C  C34  1  0.50000000  0.59127049  0.36067344  1
  C  C35  1  0.50000000  0.59182078  0.69481685  1
  C  C36  1  0.50000000  0.65111823  0.02715180  1
  C  C37  1  0.50000000  0.65025671  0.36133650  1
  C  C38  1  0.50000000  0.65178909  0.69450735  1
  C  C39  1  0.50000000  0.71114739  0.02822856  1
  C  C40  1  0.50000000  0.71041920  0.36125672  1
  C  C41  1  0.50000000  0.71189068  0.69460989  1
  C  C42  1  0.50000000  0.25870758  0.05472040  1
  C  C43  1  0.50000000  0.25774465  0.39208857  1
  C  C44  1  0.50000000  0.26160956  0.72341385  1
  C  C45  1  0.50000000  0.31792873  0.05503896  1
  C  C46  1  0.50000000  0.31676730  0.38936513  1
  C  C47  1  0.50000000  0.32085798  0.72226046  1
  C  C48  1  0.50000000  0.37816868  0.05609651  1
  C  C49  1  0.50000000  0.37673176  0.38822529  1
  C  C50  1  0.50000000  0.38074391  0.72216325  1
  C  C51  1  0.50000000  0.43647155  0.06244435  1
  C  C52  1  0.50000000  0.43532552  0.38523248  1
  C  C53  1  0.50000000  0.44069206  0.72241278  1
  C  C54  1  0.50000000  0.50114183  0.72258216  1
  C  C55  1  0.50000000  0.56171297  0.72256132  1
  C  C56  1  0.50000000  0.62087204  0.05416181  1
  C  C57  1  0.50000000  0.62048347  0.38928728  1
  C  C58  1  0.50000000  0.62189968  0.72222037  1
  C  C59  1  0.50000000  0.68108547  0.05548309  1
  C  C60  1  0.50000000  0.68068407  0.38901477  1
  C  C61  1  0.50000000  0.68194343  0.72226522  1
  C  C62  1  0.50000000  0.74020572  0.05732175  1
  C  C63  1  0.50000000  0.73984467  0.38943995  1
  C  C64  1  0.50000000  0.74103931  0.72333515  1
  C  C65  1  0.50000000  0.25774306  0.10792107  1
  C  C66  1  0.50000000  0.25871200  0.44528450  1
  C  C67  1  0.50000000  0.26162914  0.77657969  1
  C  C68  1  0.50000000  0.31677424  0.11064720  1
  C  C69  1  0.50000000  0.31793458  0.44497228  1
  C  C70  1  0.50000000  0.32088917  0.77768139  1
  C  C71  1  0.50000000  0.37673709  0.11177315  1
  C  C72  1  0.50000000  0.37816384  0.44389469  1
  C  C73  1  0.50000000  0.38075562  0.77784694  1
  C  C74  1  0.50000000  0.43532877  0.11478786  1
  C  C75  1  0.50000000  0.43645821  0.43757846  1
  C  C76  1  0.50000000  0.44069606  0.77758966  1
  C  C77  1  0.50000000  0.50114713  0.77740675  1
  C  C78  1  0.50000000  0.56171781  0.77739726  1
  C  C79  1  0.50000000  0.62048220  0.11069380  1
  C  C80  1  0.50000000  0.62087090  0.44581980  1
  C  C81  1  0.50000000  0.62190468  0.77774863  1
  C  C82  1  0.50000000  0.68067909  0.11097017  1
  C  C83  1  0.50000000  0.68108352  0.44450362  1
  C  C84  1  0.50000000  0.68193334  0.77774401  1
  C  C85  1  0.50000000  0.73982717  0.11055592  1
  C  C86  1  0.50000000  0.74021075  0.44268200  1
  C  C87  1  0.50000000  0.74102877  0.77672285  1
  C  C88  1  0.50000000  0.28657273  0.13793009  1
  C  C89  1  0.50000000  0.28843607  0.47322677  1
  C  C90  1  0.50000000  0.29087623  0.80501015  1
  C  C91  1  0.50000000  0.34644878  0.13907269  1
  C  C92  1  0.50000000  0.34855833  0.47236232  1
  C  C93  1  0.50000000  0.35093819  0.80578663  1
  C  C94  1  0.50000000  0.40569291  0.14112232  1
  C  C95  1  0.50000000  0.40884463  0.47052435  1
  C  C96  1  0.50000000  0.41068010  0.80562692  1
  C  C97  1  0.50000000  0.47079361  0.80457024  1
  C  C98  1  0.50000000  0.53158445  0.80413396  1
  C  C99  1  0.50000000  0.59127331  0.13931472  1
  C  C100  1  0.50000000  0.59215629  0.47483931  1
  C  C101  1  0.50000000  0.59182700  0.80514046  1
  C  C102  1  0.50000000  0.65025380  0.13864735  1
  C  C103  1  0.50000000  0.65111716  0.47283683  1
  C  C104  1  0.50000000  0.65178023  0.80549538  1
  C  C105  1  0.50000000  0.71041023  0.13874214  1
  C  C106  1  0.50000000  0.71114510  0.47175322  1
  C  C107  1  0.50000000  0.71187606  0.80544371  1
  C  C108  1  0.50000000  0.28600761  0.19407719  1
  C  C109  1  0.50000000  0.28949464  0.52901806  1
  C  C110  1  0.50000000  0.29070480  0.86081767  1
  C  C111  1  0.50000000  0.34585605  0.19412435  1
  C  C112  1  0.50000000  0.34991312  0.52745471  1
  C  C113  1  0.50000000  0.35090294  0.86129189  1
  C  C114  1  0.50000000  0.40553550  0.19598077  1
  C  C115  1  0.50000000  0.41053358  0.52655913  1
  C  C116  1  0.50000000  0.41070470  0.86100872  1
  C  C117  1  0.50000000  0.47219252  0.53419669  1
  C  C118  1  0.50000000  0.47079801  0.85961316  1
  C  C119  1  0.50000000  0.53117433  0.53285397  1
  C  C120  1  0.50000000  0.53171723  0.85893533  1
  C  C121  1  0.50000000  0.59107125  0.19276593  1
  C  C122  1  0.50000000  0.59167646  0.52886481  1
  C  C123  1  0.50000000  0.59179739  0.86019896  1
  C  C124  1  0.50000000  0.65007519  0.19419647  1
  C  C125  1  0.50000000  0.65135392  0.52808832  1
  C  C126  1  0.50000000  0.65169758  0.86081528  1
  C  C127  1  0.50000000  0.71021545  0.19482191  1
  C  C128  1  0.50000000  0.71143308  0.52781314  1
  C  C129  1  0.50000000  0.71180974  0.86153581  1
  C  C130  1  0.50000000  0.25671986  0.22332153  1
  C  C131  1  0.50000000  0.26049636  0.55833651  1
  C  C132  1  0.50000000  0.26109919  0.88859018  1
  C  C133  1  0.50000000  0.31577449  0.22208021  1
  C  C134  1  0.50000000  0.31990079  0.55583830  1
  C  C135  1  0.50000000  0.32042183  0.88872603  1
  C  C136  1  0.50000000  0.37556930  0.22250219  1
  C  C137  1  0.50000000  0.38068997  0.55459775  1
  C  C138  1  0.50000000  0.38073868  0.88921984  1
  C  C139  1  0.50000000  0.43516677  0.22370070  1
  C  C140  1  0.50000000  0.44122164  0.55606613  1
  C  C141  1  0.50000000  0.44089238  0.88810400  1
  C  C142  1  0.50000000  0.50169537  0.56068099  1
  C  C143  1  0.50000000  0.50145000  0.88502149  1
  C  C144  1  0.50000000  0.56112112  0.55740469  1
  C  C145  1  0.50000000  0.56154861  0.88715609  1
  C  C146  1  0.50000000  0.62012490  0.22179593  1
  C  C147  1  0.50000000  0.62163053  0.55631827  1
  C  C148  1  0.50000000  0.62181150  0.88806922  1
  C  C149  1  0.50000000  0.68028330  0.22227005  1
  C  C150  1  0.50000000  0.68164919  0.55567572  1
  C  C151  1  0.50000000  0.68182666  0.88888742  1
  C  C152  1  0.50000000  0.73943912  0.22335852  1
  C  C153  1  0.50000000  0.74074820  0.55623094  1
  C  C154  1  0.50000000  0.74092980  0.89047362  1
  C  C155  1  0.50000000  0.25670751  0.27669264  1
  C  C156  1  0.50000000  0.26108746  0.61137308  1
  C  C157  1  0.50000000  0.26050261  0.94162238  1
  C  C158  1  0.50000000  0.31576989  0.27792687  1
  C  C159  1  0.50000000  0.32041177  0.61128237  1
  C  C160  1  0.50000000  0.31989653  0.94415992  1
  C  C161  1  0.50000000  0.37556256  0.27749877  1
  C  C162  1  0.50000000  0.38073412  0.61081104  1
  C  C163  1  0.50000000  0.38069584  0.94544499  1
  C  C164  1  0.50000000  0.43515487  0.27628834  1
  C  C165  1  0.50000000  0.44088192  0.61189591  1
  C  C166  1  0.50000000  0.44123826  0.94393553  1
  C  C167  1  0.50000000  0.50143844  0.61497366  1
  C  C168  1  0.50000000  0.50171383  0.93931628  1
  C  C169  1  0.50000000  0.56153256  0.61282255  1
  C  C170  1  0.50000000  0.56113530  0.94257118  1
  C  C171  1  0.50000000  0.62012200  0.27818506  1
  C  C172  1  0.50000000  0.62180696  0.61191991  1
  C  C173  1  0.50000000  0.62163683  0.94366634  1
  C  C174  1  0.50000000  0.68028361  0.27770870  1
  C  C175  1  0.50000000  0.68181039  0.61108704  1
  C  C176  1  0.50000000  0.68166193  0.94430310  1
  C  C177  1  0.50000000  0.73944084  0.27661404  1
  C  C178  1  0.50000000  0.74091555  0.60953022  1
  C  C179  1  0.50000000  0.74077092  0.94376415  1
  H  H180  1  0.50000000  0.23558493  0.03397270  1
  H  H181  1  0.50000000  0.23393936  0.37324686  1
  H  H182  1  0.50000000  0.23818086  0.70355088  1
  H  H183  1  0.50000000  0.76378993  0.03788688  1
  H  H184  1  0.50000000  0.76315243  0.36914321  1
  H  H185  1  0.50000000  0.76447007  0.70342293  1
  H  H186  1  0.50000000  0.23392947  0.12675962  1
  H  H187  1  0.50000000  0.23560374  0.46606528  1
  H  H188  1  0.50000000  0.23822498  0.79655013  1
  H  H189  1  0.50000000  0.76313911  0.13081127  1
  H  H190  1  0.50000000  0.76378960  0.46214020  1
  H  H191  1  0.50000000  0.76443013  0.79671304  1
  H  H192  1  0.50000000  0.23324092  0.20342499  1
  H  H193  1  0.50000000  0.23681257  0.53915348  1
  H  H194  1  0.50000000  0.23785572  0.86817768  1
  H  H195  1  0.50000000  0.76286807  0.20344545  1
  H  H196  1  0.50000000  0.76407493  0.53604580  1
  H  H197  1  0.50000000  0.76443286  0.87080538  1
  H  H198  1  0.50000000  0.23322221  0.29658671  1
  H  H199  1  0.50000000  0.23786299  0.63181764  1
  H  H200  1  0.50000000  0.23681487  0.96076205  1
  H  H201  1  0.50000000  0.76285751  0.29657715  1
  H  H202  1  0.50000000  0.76439466  0.62926930  1
  H  H203  1  0.50000000  0.76408930  0.96400560  1
  H  H204  1  0.50000000  0.47663348  0.00626735  1
  H  H205  1  0.50000000  0.52953104  0.00927380  1
  H  H206  1  0.50000000  0.56750602  0.28766074  1
  H  H207  1  0.50000000  0.56899073  0.04551226  1
  H  H208  1  0.50000000  0.56781807  0.38058123  1
  H  H209  1  0.50000000  0.46094602  0.04899262  1
  H  H210  1  0.50000000  0.45842178  0.36459255  1
  H  H211  1  0.50000000  0.45841758  0.13543039  1
  H  H212  1  0.50000000  0.46093551  0.45101353  1
  H  H213  1  0.50000000  0.56782412  0.11941022  1
  H  H214  1  0.50000000  0.56897374  0.45447706  1
  H  H215  1  0.50000000  0.47663153  0.49373984  1
  H  H216  1  0.50000000  0.52950853  0.49071245  1
  H  H217  1  0.50000000  0.56751171  0.21234390  1
  H  H218  1  0.50000000  0.45851198  0.20377305  1
  H  H219  1  0.50000000  0.45849766  0.29621480  1
