# generated using pymatgen
data_H4C27
_symmetry_space_group_name_H-M   'P 1'
_cell_length_a   20.00000000
_cell_length_b   37.22700000
_cell_length_c   25.74084840
_cell_angle_alpha   90.00000000
_cell_angle_beta   90.00000000
_cell_angle_gamma   90.00000000
_symmetry_Int_Tables_number   1
_chemical_formula_structural   H4C27
_chemical_formula_sum   'H24 C162'
_cell_volume   19165.09126743
_cell_formula_units_Z   6
loop_
 _symmetry_equiv_pos_site_id
 _symmetry_equiv_pos_as_xyz
  1  'x, y, z'
loop_
 _atom_site_type_symbol
 _atom_site_label
 _atom_site_symmetry_multiplicity
 _atom_site_fract_x
 _atom_site_fract_y
 _atom_site_fract_z
 _atom_site_occupancy
  C  C0  1  0.50000000  0.31759045  0.22209115  1
  C  C1  1  0.50000000  0.31753840  0.55541564  1
  C  C2  1  0.50000000  0.31752413  0.88875048  1
  C  C3  1  0.50000000  0.38401839  0.22238184  1
  C  C4  1  0.50000000  0.38395404  0.55567550  1
  C  C5  1  0.50000000  0.38394291  0.88904897  1
  C  C6  1  0.50000000  0.45033863  0.22218934  1
  C  C7  1  0.50000000  0.45022764  0.55554163  1
  C  C8  1  0.50000000  0.45022076  0.88887556  1
  C  C9  1  0.50000000  0.51676924  0.22221353  1
  C  C10  1  0.50000000  0.51653004  0.55567681  1
  C  C11  1  0.50000000  0.51653548  0.88885794  1
  C  C12  1  0.50000000  0.58300352  0.22233294  1
  C  C13  1  0.50000000  0.58271211  0.55581406  1
  C  C14  1  0.50000000  0.58279874  0.88880063  1
  C  C15  1  0.50000000  0.64944617  0.22199966  1
  C  C16  1  0.50000000  0.64892682  0.55591012  1
  C  C17  1  0.50000000  0.64926503  0.88860017  1
  C  C18  1  0.50000000  0.71499687  0.55609737  1
  C  C19  1  0.50000000  0.71521518  0.89066661  1
  C  C20  1  0.50000000  0.31758946  0.27791354  1
  C  C21  1  0.50000000  0.31752205  0.61125870  1
  C  C22  1  0.50000000  0.31753785  0.94459359  1
  C  C23  1  0.50000000  0.38401741  0.27762559  1
  C  C24  1  0.50000000  0.38394215  0.61095934  1
  C  C25  1  0.50000000  0.38395360  0.94433253  1
  C  C26  1  0.50000000  0.45033797  0.27781747  1
  C  C27  1  0.50000000  0.45022234  0.61113220  1
  C  C28  1  0.50000000  0.45022746  0.94446600  1
  C  C29  1  0.50000000  0.51676896  0.27779186  1
  C  C30  1  0.50000000  0.51654019  0.61114997  1
  C  C31  1  0.50000000  0.51653030  0.94433192  1
  C  C32  1  0.50000000  0.58300200  0.27766212  1
  C  C33  1  0.50000000  0.58280704  0.61120399  1
  C  C34  1  0.50000000  0.58271253  0.94419144  1
  C  C35  1  0.50000000  0.64944535  0.27799576  1
  C  C36  1  0.50000000  0.64927856  0.61139427  1
  C  C37  1  0.50000000  0.64892922  0.94408544  1
  C  C38  1  0.50000000  0.71523724  0.60929297  1
  C  C39  1  0.50000000  0.71499754  0.94386258  1
  C  C40  1  0.50000000  0.28511866  0.30664652  1
  C  C41  1  0.50000000  0.28508551  0.64002495  1
  C  C42  1  0.50000000  0.28510818  0.97337185  1
  C  C43  1  0.50000000  0.35069662  0.30549077  1
  C  C44  1  0.50000000  0.35063193  0.63883475  1
  C  C45  1  0.50000000  0.35064418  0.97219652  1
  C  C46  1  0.50000000  0.41724598  0.30552218  1
  C  C47  1  0.50000000  0.41713269  0.63886256  1
  C  C48  1  0.50000000  0.41715469  0.97222465  1
  C  C49  1  0.50000000  0.48351948  0.30568253  1
  C  C50  1  0.50000000  0.48336271  0.63901821  1
  C  C51  1  0.50000000  0.48338854  0.97230896  1
  C  C52  1  0.50000000  0.54982874  0.30551883  1
  C  C53  1  0.50000000  0.54961873  0.63896978  1
  C  C54  1  0.50000000  0.54963139  0.97204914  1
  C  C55  1  0.50000000  0.61635399  0.30558450  1
  C  C56  1  0.50000000  0.61603084  0.63918225  1
  C  C57  1  0.50000000  0.61598168  0.97207784  1
  C  C58  1  0.50000000  0.68184471  0.30661792  1
  C  C59  1  0.50000000  0.68263641  0.63862084  1
  C  C60  1  0.50000000  0.68205862  0.97212574  1
  C  C61  1  0.50000000  0.28511843  0.02668050  1
  C  C62  1  0.50000000  0.28510703  0.35995266  1
  C  C63  1  0.50000000  0.28509223  0.69334856  1
  C  C64  1  0.50000000  0.35066480  0.02785748  1
  C  C65  1  0.50000000  0.35068202  0.36114914  1
  C  C66  1  0.50000000  0.35063199  0.69448830  1
  C  C67  1  0.50000000  0.41719136  0.02782401  1
  C  C68  1  0.50000000  0.41722643  0.36112602  1
  C  C69  1  0.50000000  0.41712615  0.69446300  1
  C  C70  1  0.50000000  0.48343946  0.02765307  1
  C  C71  1  0.50000000  0.48350370  0.36101764  1
  C  C72  1  0.50000000  0.48336183  0.69436418  1
  C  C73  1  0.50000000  0.54972355  0.02770378  1
  C  C74  1  0.50000000  0.54983699  0.36128009  1
  C  C75  1  0.50000000  0.54963347  0.69452390  1
  C  C76  1  0.50000000  0.61617071  0.02749219  1
  C  C77  1  0.50000000  0.61639167  0.36126767  1
  C  C78  1  0.50000000  0.61606730  0.69445332  1
  C  C79  1  0.50000000  0.68167720  0.02647134  1
  C  C80  1  0.50000000  0.68185877  0.36004825  1
  C  C81  1  0.50000000  0.68259353  0.69427855  1
  C  C82  1  0.50000000  0.31755922  0.05545347  1
  C  C83  1  0.50000000  0.31756689  0.38871688  1
  C  C84  1  0.50000000  0.31753400  0.72208163  1
  C  C85  1  0.50000000  0.38398685  0.05572721  1
  C  C86  1  0.50000000  0.38400322  0.38901253  1
  C  C87  1  0.50000000  0.38393989  0.72235877  1
  C  C88  1  0.50000000  0.45028967  0.05554092  1
  C  C89  1  0.50000000  0.45031287  0.38885791  1
  C  C90  1  0.50000000  0.45020951  0.72221751  1
  C  C91  1  0.50000000  0.51666387  0.05551912  1
  C  C92  1  0.50000000  0.51670722  0.38897461  1
  C  C93  1  0.50000000  0.51651485  0.72228546  1
  C  C94  1  0.50000000  0.58292429  0.05550198  1
  C  C95  1  0.50000000  0.58294950  0.38912649  1
  C  C96  1  0.50000000  0.58279869  0.72230610  1
  C  C97  1  0.50000000  0.64961447  0.05490336  1
  C  C98  1  0.50000000  0.64949779  0.38877924  1
  C  C99  1  0.50000000  0.64940112  0.72213601  1
  C  C100  1  0.50000000  0.71507046  0.72339559  1
  C  C101  1  0.50000000  0.31756897  0.11128751  1
  C  C102  1  0.50000000  0.31755994  0.44455089  1
  C  C103  1  0.50000000  0.31753489  0.77792766  1
  C  C104  1  0.50000000  0.38400465  0.11099291  1
  C  C105  1  0.50000000  0.38398726  0.44427847  1
  C  C106  1  0.50000000  0.38394035  0.77764738  1
  C  C107  1  0.50000000  0.45031418  0.11114877  1
  C  C108  1  0.50000000  0.45028851  0.44446563  1
  C  C109  1  0.50000000  0.45020870  0.77778862  1
  C  C110  1  0.50000000  0.51670935  0.11103138  1
  C  C111  1  0.50000000  0.51666001  0.44448743  1
  C  C112  1  0.50000000  0.51651184  0.77771832  1
  C  C113  1  0.50000000  0.58295429  0.11087298  1
  C  C114  1  0.50000000  0.58291610  0.44449882  1
  C  C115  1  0.50000000  0.58279280  0.77768776  1
  C  C116  1  0.50000000  0.64950701  0.11121361  1
  C  C117  1  0.50000000  0.64960207  0.44508910  1
  C  C118  1  0.50000000  0.64938946  0.77784821  1
  C  C119  1  0.50000000  0.71505668  0.77660759  1
  C  C120  1  0.50000000  0.28510759  0.14005062  1
  C  C121  1  0.50000000  0.28511897  0.47332603  1
  C  C122  1  0.50000000  0.28509177  0.80666164  1
  C  C123  1  0.50000000  0.35068402  0.13885641  1
  C  C124  1  0.50000000  0.35066574  0.47214880  1
  C  C125  1  0.50000000  0.35063343  0.80551971  1
  C  C126  1  0.50000000  0.41722761  0.13888060  1
  C  C127  1  0.50000000  0.41719122  0.47218279  1
  C  C128  1  0.50000000  0.41712589  0.80554391  1
  C  C129  1  0.50000000  0.48350528  0.13898899  1
  C  C130  1  0.50000000  0.48343714  0.47235503  1
  C  C131  1  0.50000000  0.48335971  0.80564250  1
  C  C132  1  0.50000000  0.54983998  0.13872297  1
  C  C133  1  0.50000000  0.54971872  0.47230361  1
  C  C134  1  0.50000000  0.54962866  0.80547771  1
  C  C135  1  0.50000000  0.61639863  0.13872476  1
  C  C136  1  0.50000000  0.61616157  0.47250605  1
  C  C137  1  0.50000000  0.61605723  0.80554038  1
  C  C138  1  0.50000000  0.68186633  0.13994801  1
  C  C139  1  0.50000000  0.68166242  0.47351684  1
  C  C140  1  0.50000000  0.68257407  0.80570498  1
  C  C141  1  0.50000000  0.28511834  0.19335710  1
  C  C142  1  0.50000000  0.28510867  0.52663498  1
  C  C143  1  0.50000000  0.28508599  0.85998577  1
  C  C144  1  0.50000000  0.35069840  0.19451492  1
  C  C145  1  0.50000000  0.35064499  0.52781085  1
  C  C146  1  0.50000000  0.35063367  0.86117337  1
  C  C147  1  0.50000000  0.41724697  0.19448465  1
  C  C148  1  0.50000000  0.41715485  0.52778242  1
  C  C149  1  0.50000000  0.41713239  0.86114445  1
  C  C150  1  0.50000000  0.48352028  0.19432345  1
  C  C151  1  0.50000000  0.48338828  0.52769886  1
  C  C152  1  0.50000000  0.48335945  0.86098826  1
  C  C153  1  0.50000000  0.54982899  0.19448367  1
  C  C154  1  0.50000000  0.54962971  0.52795924  1
  C  C155  1  0.50000000  0.54961178  0.86103387  1
  C  C156  1  0.50000000  0.61635666  0.19440886  1
  C  C157  1  0.50000000  0.61597705  0.52792123  1
  C  C158  1  0.50000000  0.61601821  0.86081409  1
  C  C159  1  0.50000000  0.68184766  0.19337972  1
  C  C160  1  0.50000000  0.68204952  0.52785948  1
  C  C161  1  0.50000000  0.68261230  0.86135838  1
  H  H162  1  0.50000000  0.74027968  0.53437977  1
  H  H163  1  0.50000000  0.74110086  0.87073043  1
  H  H164  1  0.50000000  0.74113961  0.62919139  1
  H  H165  1  0.50000000  0.74030161  0.96552701  1
  H  H166  1  0.50000000  0.25929772  0.28651827  1
  H  H167  1  0.50000000  0.25923714  0.61999208  1
  H  H168  1  0.50000000  0.25924625  0.95338187  1
  H  H169  1  0.50000000  0.25925080  0.04665247  1
  H  H170  1  0.50000000  0.25925895  0.37999750  1
  H  H171  1  0.50000000  0.25927934  0.71348805  1
  H  H172  1  0.50000000  0.74094588  0.70341882  1
  H  H173  1  0.50000000  0.74091711  0.79661679  1
  H  H174  1  0.50000000  0.25927151  0.11997269  1
  H  H175  1  0.50000000  0.25925856  0.45333472  1
  H  H176  1  0.50000000  0.25928807  0.78649757  1
  H  H177  1  0.50000000  0.25930640  0.21350934  1
  H  H178  1  0.50000000  0.25925367  0.54664350  1
  H  H179  1  0.50000000  0.25925009  0.88005319  1
  H  H180  1  0.50000000  0.70769447  0.28656893  1
  H  H181  1  0.50000000  0.70767843  0.04621571  1
  H  H182  1  0.50000000  0.70775836  0.38002079  1
  H  H183  1  0.50000000  0.70775597  0.11994955  1
  H  H184  1  0.50000000  0.70765419  0.45375473  1
  H  H185  1  0.50000000  0.70768845  0.21344979  1
