# generated using pymatgen
data_H2C9
_symmetry_space_group_name_H-M   'P 1'
_cell_length_a   10.00000000
_cell_length_b   41.10890000
_cell_length_c   25.93191780
_cell_angle_alpha   90.00000000
_cell_angle_beta   90.00000000
_cell_angle_gamma   90.00000000
_symmetry_Int_Tables_number   1
_chemical_formula_structural   H2C9
_chemical_formula_sum   'H40 C180'
_cell_volume   10660.32615838
_cell_formula_units_Z   20
loop_
 _symmetry_equiv_pos_site_id
 _symmetry_equiv_pos_as_xyz
  1  'x, y, z'
loop_
 _atom_site_type_symbol
 _atom_site_label
 _atom_site_symmetry_multiplicity
 _atom_site_fract_x
 _atom_site_fract_y
 _atom_site_fract_z
 _atom_site_occupancy
  C  C0  1  0.50000000  0.28786023  0.30563505  1
  C  C1  1  0.50000000  0.29023854  0.63913681  1
  C  C2  1  0.50000000  0.28963505  0.97109514  1
  C  C3  1  0.50000000  0.34782954  0.30581890  1
  C  C4  1  0.50000000  0.35046341  0.63898595  1
  C  C5  1  0.50000000  0.34987279  0.97196186  1
  C  C6  1  0.50000000  0.40727114  0.30572513  1
  C  C7  1  0.50000000  0.41048839  0.63870065  1
  C  C8  1  0.50000000  0.41000521  0.97249836  1
  C  C9  1  0.50000000  0.46697420  0.30405223  1
  C  C10  1  0.50000000  0.47042611  0.63914471  1
  C  C11  1  0.50000000  0.47072713  0.97293866  1
  C  C12  1  0.50000000  0.53064682  0.64062663  1
  C  C13  1  0.50000000  0.53224426  0.96532064  1
  C  C14  1  0.50000000  0.59159707  0.64131331  1
  C  C15  1  0.50000000  0.59108495  0.96687747  1
  C  C16  1  0.50000000  0.65044328  0.30751792  1
  C  C17  1  0.50000000  0.65155658  0.63982411  1
  C  C18  1  0.50000000  0.65155957  0.97138799  1
  C  C19  1  0.50000000  0.70974507  0.30552250  1
  C  C20  1  0.50000000  0.71174490  0.63886022  1
  C  C21  1  0.50000000  0.71151709  0.97188851  1
  C  C22  1  0.50000000  0.28910896  0.02711928  1
  C  C23  1  0.50000000  0.28813617  0.36194287  1
  C  C24  1  0.50000000  0.29039816  0.69501268  1
  C  C25  1  0.50000000  0.34922486  0.02728333  1
  C  C26  1  0.50000000  0.34813793  0.36123924  1
  C  C27  1  0.50000000  0.35055334  0.69445799  1
  C  C28  1  0.50000000  0.40907961  0.02778263  1
  C  C29  1  0.50000000  0.40761681  0.36098623  1
  C  C30  1  0.50000000  0.41045762  0.69424499  1
  C  C31  1  0.50000000  0.46944786  0.02929985  1
  C  C32  1  0.50000000  0.46688963  0.35921037  1
  C  C33  1  0.50000000  0.47035085  0.69460521  1
  C  C34  1  0.50000000  0.53061048  0.69558349  1
  C  C35  1  0.50000000  0.59145222  0.69595599  1
  C  C36  1  0.50000000  0.65203964  0.02497103  1
  C  C37  1  0.50000000  0.65079743  0.36063285  1
  C  C38  1  0.50000000  0.65167059  0.69472583  1
  C  C39  1  0.50000000  0.71121899  0.02758034  1
  C  C40  1  0.50000000  0.71009509  0.36138847  1
  C  C41  1  0.50000000  0.71188516  0.69473530  1
  C  C42  1  0.50000000  0.25969557  0.05537483  1
  C  C43  1  0.50000000  0.25919654  0.39128154  1
  C  C44  1  0.50000000  0.26117305  0.72337729  1
  C  C45  1  0.50000000  0.31883278  0.05501859  1
  C  C46  1  0.50000000  0.31820826  0.38941928  1
  C  C47  1  0.50000000  0.32044373  0.72232286  1
  C  C48  1  0.50000000  0.37884886  0.05523137  1
  C  C49  1  0.50000000  0.37806092  0.38895743  1
  C  C50  1  0.50000000  0.38045891  0.72210346  1
  C  C51  1  0.50000000  0.43891685  0.05603986  1
  C  C52  1  0.50000000  0.43784647  0.38839816  1
  C  C53  1  0.50000000  0.44039744  0.72222181  1
  C  C54  1  0.50000000  0.49710451  0.06181802  1
  C  C55  1  0.50000000  0.49628930  0.38568135  1
  C  C56  1  0.50000000  0.50039755  0.72248772  1
  C  C57  1  0.50000000  0.56091464  0.72261308  1
  C  C58  1  0.50000000  0.62165315  0.72255180  1
  C  C59  1  0.50000000  0.68092848  0.05444637  1
  C  C60  1  0.50000000  0.68034533  0.38941661  1
  C  C61  1  0.50000000  0.68191144  0.72232698  1
  C  C62  1  0.50000000  0.74033860  0.05720841  1
  C  C63  1  0.50000000  0.73982192  0.38979078  1
  C  C64  1  0.50000000  0.74116282  0.72339653  1
  C  C65  1  0.50000000  0.25919733  0.10870794  1
  C  C66  1  0.50000000  0.25969487  0.44461723  1
  C  C67  1  0.50000000  0.26117588  0.77660777  1
  C  C68  1  0.50000000  0.31821054  0.11057285  1
  C  C69  1  0.50000000  0.31883104  0.44498493  1
  C  C70  1  0.50000000  0.32044389  0.77769093  1
  C  C71  1  0.50000000  0.37806295  0.11103785  1
  C  C72  1  0.50000000  0.37884939  0.44476621  1
  C  C73  1  0.50000000  0.38046546  0.77789528  1
  C  C74  1  0.50000000  0.43785246  0.11161783  1
  C  C75  1  0.50000000  0.43891386  0.44396853  1
  C  C76  1  0.50000000  0.44040053  0.77779499  1
  C  C77  1  0.50000000  0.49628725  0.11434075  1
  C  C78  1  0.50000000  0.49710381  0.43820429  1
  C  C79  1  0.50000000  0.50039465  0.77752199  1
  C  C80  1  0.50000000  0.56091108  0.77738957  1
  C  C81  1  0.50000000  0.62164906  0.77743219  1
  C  C82  1  0.50000000  0.68032425  0.11057085  1
  C  C83  1  0.50000000  0.68095219  0.44554600  1
  C  C84  1  0.50000000  0.68190039  0.77767600  1
  C  C85  1  0.50000000  0.73981171  0.11019008  1
  C  C86  1  0.50000000  0.74034997  0.44277384  1
  C  C87  1  0.50000000  0.74115948  0.77662068  1
  C  C88  1  0.50000000  0.28814286  0.13803264  1
  C  C89  1  0.50000000  0.28910610  0.47287692  1
  C  C90  1  0.50000000  0.29039200  0.80498623  1
  C  C91  1  0.50000000  0.34813801  0.13876294  1
  C  C92  1  0.50000000  0.34922364  0.47270887  1
  C  C93  1  0.50000000  0.35055915  0.80554536  1
  C  C94  1  0.50000000  0.40761651  0.13901741  1
  C  C95  1  0.50000000  0.40907546  0.47221281  1
  C  C96  1  0.50000000  0.41045812  0.80576238  1
  C  C97  1  0.50000000  0.46689432  0.14081948  1
  C  C98  1  0.50000000  0.46944299  0.47071082  1
  C  C99  1  0.50000000  0.47035417  0.80540701  1
  C  C100  1  0.50000000  0.53060661  0.80441378  1
  C  C101  1  0.50000000  0.59144984  0.80404927  1
  C  C102  1  0.50000000  0.65078369  0.13936879  1
  C  C103  1  0.50000000  0.65205324  0.47502112  1
  C  C104  1  0.50000000  0.65166049  0.80527128  1
  C  C105  1  0.50000000  0.71008099  0.13858868  1
  C  C106  1  0.50000000  0.71124196  0.47242143  1
  C  C107  1  0.50000000  0.71187497  0.80526491  1
  C  C108  1  0.50000000  0.28786530  0.19434909  1
  C  C109  1  0.50000000  0.28962871  0.52890664  1
  C  C110  1  0.50000000  0.29023859  0.86085652  1
  C  C111  1  0.50000000  0.34783013  0.19419074  1
  C  C112  1  0.50000000  0.34987281  0.52804378  1
  C  C113  1  0.50000000  0.35046724  0.86102020  1
  C  C114  1  0.50000000  0.40727269  0.19428278  1
  C  C115  1  0.50000000  0.41000073  0.52750731  1
  C  C116  1  0.50000000  0.41048293  0.86130599  1
  C  C117  1  0.50000000  0.46698296  0.19597678  1
  C  C118  1  0.50000000  0.47072284  0.52706108  1
  C  C119  1  0.50000000  0.47042562  0.86086184  1
  C  C120  1  0.50000000  0.53225069  0.53468482  1
  C  C121  1  0.50000000  0.53064309  0.85935974  1
  C  C122  1  0.50000000  0.59108761  0.53311552  1
  C  C123  1  0.50000000  0.59158980  0.85869751  1
  C  C124  1  0.50000000  0.65044479  0.19248288  1
  C  C125  1  0.50000000  0.65156856  0.52861150  1
  C  C126  1  0.50000000  0.65155183  0.86017041  1
  C  C127  1  0.50000000  0.70973217  0.19444804  1
  C  C128  1  0.50000000  0.71154152  0.52811690  1
  C  C129  1  0.50000000  0.71173690  0.86113949  1
  C  C130  1  0.50000000  0.25869578  0.22326747  1
  C  C131  1  0.50000000  0.26056884  0.55777651  1
  C  C132  1  0.50000000  0.26086785  0.88899538  1
  C  C133  1  0.50000000  0.31769597  0.22216524  1
  C  C134  1  0.50000000  0.31980794  0.55612691  1
  C  C135  1  0.50000000  0.32011959  0.88851041  1
  C  C136  1  0.50000000  0.37751722  0.22209929  1
  C  C137  1  0.50000000  0.38006213  0.55537705  1
  C  C138  1  0.50000000  0.38026345  0.88886935  1
  C  C139  1  0.50000000  0.43708533  0.22256016  1
  C  C140  1  0.50000000  0.44076797  0.55482999  1
  C  C141  1  0.50000000  0.44058787  0.88908183  1
  C  C142  1  0.50000000  0.49652760  0.22359720  1
  C  C143  1  0.50000000  0.50112232  0.55650240  1
  C  C144  1  0.50000000  0.50067786  0.88781313  1
  C  C145  1  0.50000000  0.56157225  0.56112168  1
  C  C146  1  0.50000000  0.56130093  0.88464998  1
  C  C147  1  0.50000000  0.62095144  0.55742044  1
  C  C148  1  0.50000000  0.62143960  0.88700399  1
  C  C149  1  0.50000000  0.67969738  0.22198386  1
  C  C150  1  0.50000000  0.68175297  0.55627623  1
  C  C151  1  0.50000000  0.68183608  0.88833686  1
  C  C152  1  0.50000000  0.73912283  0.22351318  1
  C  C153  1  0.50000000  0.74103680  0.55677887  1
  C  C154  1  0.50000000  0.74108338  0.89020756  1
  C  C155  1  0.50000000  0.25868917  0.27669555  1
  C  C156  1  0.50000000  0.26086307  0.61099293  1
  C  C157  1  0.50000000  0.26057815  0.94221582  1
  C  C158  1  0.50000000  0.31769037  0.27782445  1
  C  C159  1  0.50000000  0.32011546  0.61148797  1
  C  C160  1  0.50000000  0.31981457  0.94387087  1
  C  C161  1  0.50000000  0.37751628  0.27790756  1
  C  C162  1  0.50000000  0.38026818  0.61113485  1
  C  C163  1  0.50000000  0.38006194  0.94463578  1
  C  C164  1  0.50000000  0.43708262  0.27745254  1
  C  C165  1  0.50000000  0.44058939  0.61091827  1
  C  C166  1  0.50000000  0.44076903  0.94516552  1
  C  C167  1  0.50000000  0.49651877  0.27643705  1
  C  C168  1  0.50000000  0.50067515  0.61218359  1
  C  C169  1  0.50000000  0.50112138  0.94349695  1
  C  C170  1  0.50000000  0.56131412  0.61535478  1
  C  C171  1  0.50000000  0.56156483  0.93888345  1
  C  C172  1  0.50000000  0.62143955  0.61299645  1
  C  C173  1  0.50000000  0.62094715  0.94257710  1
  C  C174  1  0.50000000  0.67969893  0.27801540  1
  C  C175  1  0.50000000  0.68184485  0.61165633  1
  C  C176  1  0.50000000  0.68173969  0.94371746  1
  C  C177  1  0.50000000  0.73913360  0.27644285  1
  C  C178  1  0.50000000  0.74109070  0.60979425  1
  C  C179  1  0.50000000  0.74102171  0.94322950  1
  H  H180  1  0.50000000  0.23637054  0.03515155  1
  H  H181  1  0.50000000  0.23554051  0.37204709  1
  H  H182  1  0.50000000  0.23775297  0.70342404  1
  H  H183  1  0.50000000  0.76393602  0.03778224  1
  H  H184  1  0.50000000  0.76309184  0.36937718  1
  H  H185  1  0.50000000  0.76455857  0.70338434  1
  H  H186  1  0.50000000  0.23554921  0.12795030  1
  H  H187  1  0.50000000  0.23637171  0.46485395  1
  H  H188  1  0.50000000  0.23774183  0.79650750  1
  H  H189  1  0.50000000  0.76307450  0.13062566  1
  H  H190  1  0.50000000  0.76393951  0.46221516  1
  H  H191  1  0.50000000  0.76455650  0.79663679  1
  H  H192  1  0.50000000  0.23525100  0.20335544  1
  H  H193  1  0.50000000  0.23702797  0.53819424  1
  H  H194  1  0.50000000  0.23750052  0.86890747  1
  H  H195  1  0.50000000  0.76255859  0.20361831  1
  H  H196  1  0.50000000  0.76438159  0.53661543  1
  H  H197  1  0.50000000  0.76450407  0.87024185  1
  H  H198  1  0.50000000  0.23525532  0.29663726  1
  H  H199  1  0.50000000  0.23748799  0.63105023  1
  H  H200  1  0.50000000  0.23703098  0.96178431  1
  H  H201  1  0.50000000  0.76257747  0.29632364  1
  H  H202  1  0.50000000  0.76450260  0.62976390  1
  H  H203  1  0.50000000  0.76436877  0.96341414  1
  H  H204  1  0.50000000  0.53685522  0.00567485  1
  H  H205  1  0.50000000  0.58914992  0.00900749  1
  H  H206  1  0.50000000  0.62681331  0.28805021  1
  H  H207  1  0.50000000  0.62894702  0.04553809  1
  H  H208  1  0.50000000  0.62735350  0.38062085  1
  H  H209  1  0.50000000  0.52155799  0.04838549  1
  H  H210  1  0.50000000  0.51952538  0.36536022  1
  H  H211  1  0.50000000  0.51951822  0.13466505  1
  H  H212  1  0.50000000  0.52155465  0.45165504  1
  H  H213  1  0.50000000  0.62733277  0.11939921  1
  H  H214  1  0.50000000  0.62895427  0.45445465  1
  H  H215  1  0.50000000  0.53686481  0.49433054  1
  H  H216  1  0.50000000  0.58915973  0.49099001  1
  H  H217  1  0.50000000  0.62682501  0.21196456  1
  H  H218  1  0.50000000  0.51988208  0.20358484  1
  H  H219  1  0.50000000  0.51986383  0.29646651  1
