# generated using pymatgen
data_H2C9
_symmetry_space_group_name_H-M   'P 1'
_cell_length_a   10.00000000
_cell_length_b   41.10890000
_cell_length_c   25.88517414
_cell_angle_alpha   90.00000000
_cell_angle_beta   90.00000000
_cell_angle_gamma   90.00000000
_symmetry_Int_Tables_number   1
_chemical_formula_structural   H2C9
_chemical_formula_sum   'H40 C180'
_cell_volume   10641.11035067
_cell_formula_units_Z   20
loop_
 _symmetry_equiv_pos_site_id
 _symmetry_equiv_pos_as_xyz
  1  'x, y, z'
loop_
 _atom_site_type_symbol
 _atom_site_label
 _atom_site_symmetry_multiplicity
 _atom_site_fract_x
 _atom_site_fract_y
 _atom_site_fract_z
 _atom_site_occupancy
  C  C0  1  0.50000000  0.28778924  0.30531234  1
  C  C1  1  0.50000000  0.28749695  0.63873602  1
  C  C2  1  0.50000000  0.28760347  0.97208515  1
  C  C3  1  0.50000000  0.34787054  0.30563582  1
  C  C4  1  0.50000000  0.34760469  0.63903555  1
  C  C5  1  0.50000000  0.34767672  0.97230002  1
  C  C6  1  0.50000000  0.40783506  0.30554934  1
  C  C7  1  0.50000000  0.40754754  0.63895678  1
  C  C8  1  0.50000000  0.40758224  0.97207551  1
  C  C9  1  0.50000000  0.46798702  0.30563260  1
  C  C10  1  0.50000000  0.46772690  0.63891985  1
  C  C11  1  0.50000000  0.46763862  0.97191818  1
  C  C12  1  0.50000000  0.52719544  0.30703240  1
  C  C13  1  0.50000000  0.52782366  0.63921849  1
  C  C14  1  0.50000000  0.52752951  0.97193308  1
  C  C15  1  0.50000000  0.58777576  0.64017475  1
  C  C16  1  0.50000000  0.58809495  0.96852635  1
  C  C17  1  0.50000000  0.64824976  0.63964291  1
  C  C18  1  0.50000000  0.64755116  0.96825178  1
  C  C19  1  0.50000000  0.72987225  0.30522359  1
  C  C20  1  0.50000000  0.70806085  0.63964905  1
  C  C21  1  0.50000000  0.70972636  0.97163644  1
  C  C22  1  0.50000000  0.28766243  0.02795371  1
  C  C23  1  0.50000000  0.28774355  0.36116734  1
  C  C24  1  0.50000000  0.28749215  0.69463324  1
  C  C25  1  0.50000000  0.34773328  0.02758639  1
  C  C26  1  0.50000000  0.34781625  0.36089541  1
  C  C27  1  0.50000000  0.34760934  0.69433955  1
  C  C28  1  0.50000000  0.40762405  0.02759964  1
  C  C29  1  0.50000000  0.40778208  0.36114504  1
  C  C30  1  0.50000000  0.40754486  0.69442893  1
  C  C31  1  0.50000000  0.46760438  0.02735044  1
  C  C32  1  0.50000000  0.46793853  0.36135575  1
  C  C33  1  0.50000000  0.46766193  0.69453412  1
  C  C34  1  0.50000000  0.52667693  0.02573350  1
  C  C35  1  0.50000000  0.52710467  0.36029482  1
  C  C36  1  0.50000000  0.52773139  0.69449785  1
  C  C37  1  0.50000000  0.58775329  0.69522396  1
  C  C38  1  0.50000000  0.64799511  0.69493557  1
  C  C39  1  0.50000000  0.71526010  0.02808290  1
  C  C40  1  0.50000000  0.72675372  0.36166653  1
  C  C41  1  0.50000000  0.70795978  0.69536416  1
  C  C42  1  0.50000000  0.25837589  0.05678379  1
  C  C43  1  0.50000000  0.25840714  0.38993055  1
  C  C44  1  0.50000000  0.25817043  0.72345268  1
  C  C45  1  0.50000000  0.31762963  0.05550594  1
  C  C46  1  0.50000000  0.31767539  0.38883128  1
  C  C47  1  0.50000000  0.31745250  0.72223103  1
  C  C48  1  0.50000000  0.37773169  0.05547204  1
  C  C49  1  0.50000000  0.37779135  0.38887871  1
  C  C50  1  0.50000000  0.37763412  0.72214142  1
  C  C51  1  0.50000000  0.43764552  0.05547539  1
  C  C52  1  0.50000000  0.43772801  0.38915872  1
  C  C53  1  0.50000000  0.43767373  0.72226912  1
  C  C54  1  0.50000000  0.49770810  0.05468001  1
  C  C55  1  0.50000000  0.49782589  0.38913923  1
  C  C56  1  0.50000000  0.49762430  0.72225023  1
  C  C57  1  0.50000000  0.55766857  0.72232739  1
  C  C58  1  0.50000000  0.61804938  0.72229453  1
  C  C59  1  0.50000000  0.69007673  0.06467948  1
  C  C60  1  0.50000000  0.69549663  0.38314705  1
  C  C61  1  0.50000000  0.67800600  0.72253951  1
  C  C62  1  0.50000000  0.74704046  0.04984034  1
  C  C63  1  0.50000000  0.75263726  0.39715241  1
  C  C64  1  0.50000000  0.73721635  0.72351298  1
  C  C65  1  0.50000000  0.25844900  0.10996503  1
  C  C66  1  0.50000000  0.25832958  0.44310651  1
  C  C67  1  0.50000000  0.25818210  0.77665780  1
  C  C68  1  0.50000000  0.31772044  0.11106038  1
  C  C69  1  0.50000000  0.31757284  0.44440363  1
  C  C70  1  0.50000000  0.31746322  0.77776196  1
  C  C71  1  0.50000000  0.37782676  0.11103686  1
  C  C72  1  0.50000000  0.37769224  0.44444308  1
  C  C73  1  0.50000000  0.37764364  0.77779528  1
  C  C74  1  0.50000000  0.43777144  0.11078585  1
  C  C75  1  0.50000000  0.43761219  0.44446720  1
  C  C76  1  0.50000000  0.43767658  0.77762509  1
  C  C77  1  0.50000000  0.49789681  0.11082541  1
  C  C78  1  0.50000000  0.49765707  0.44525052  1
  C  C79  1  0.50000000  0.49761612  0.77763841  1
  C  C80  1  0.50000000  0.55766037  0.77760445  1
  C  C81  1  0.50000000  0.61803985  0.77767600  1
  C  C82  1  0.50000000  0.69556318  0.11707515  1
  C  C83  1  0.50000000  0.69010138  0.43556189  1
  C  C84  1  0.50000000  0.67799180  0.77752511  1
  C  C85  1  0.50000000  0.75268628  0.10291154  1
  C  C86  1  0.50000000  0.74707750  0.45024117  1
  C  C87  1  0.50000000  0.73719914  0.77669370  1
  C  C88  1  0.50000000  0.28779138  0.13870055  1
  C  C89  1  0.50000000  0.28760593  0.47199513  1
  C  C90  1  0.50000000  0.28751385  0.80542631  1
  C  C91  1  0.50000000  0.34785254  0.13900590  1
  C  C92  1  0.50000000  0.34768215  0.47232786  1
  C  C93  1  0.50000000  0.34763224  0.80563680  1
  C  C94  1  0.50000000  0.40781641  0.13878255  1
  C  C95  1  0.50000000  0.40759007  0.47232314  1
  C  C96  1  0.50000000  0.40756162  0.80549453  1
  C  C97  1  0.50000000  0.46798717  0.13858295  1
  C  C98  1  0.50000000  0.46757102  0.47258467  1
  C  C99  1  0.50000000  0.46765579  0.80536129  1
  C  C100  1  0.50000000  0.52716649  0.13973828  1
  C  C101  1  0.50000000  0.52666525  0.47411238  1
  C  C102  1  0.50000000  0.52771635  0.80540128  1
  C  C103  1  0.50000000  0.58773935  0.80473045  1
  C  C104  1  0.50000000  0.64797105  0.80508594  1
  C  C105  1  0.50000000  0.72684402  0.13845432  1
  C  C106  1  0.50000000  0.71532755  0.47206417  1
  C  C107  1  0.50000000  0.70792805  0.80475452  1
  C  C108  1  0.50000000  0.28782884  0.19454695  1
  C  C109  1  0.50000000  0.28756207  0.52788057  1
  C  C110  1  0.50000000  0.28753175  0.86131982  1
  C  C111  1  0.50000000  0.34788902  0.19427260  1
  C  C112  1  0.50000000  0.34765012  0.52762653  1
  C  C113  1  0.50000000  0.34762917  0.86091742  1
  C  C114  1  0.50000000  0.40784463  0.19438215  1
  C  C115  1  0.50000000  0.40756090  0.52785440  1
  C  C116  1  0.50000000  0.40756387  0.86096605  1
  C  C117  1  0.50000000  0.46800376  0.19432390  1
  C  C118  1  0.50000000  0.46762599  0.52800749  1
  C  C119  1  0.50000000  0.46772471  0.86097744  1
  C  C120  1  0.50000000  0.52720703  0.19301467  1
  C  C121  1  0.50000000  0.52756049  0.52794697  1
  C  C122  1  0.50000000  0.52781466  0.86068615  1
  C  C123  1  0.50000000  0.58813131  0.53141460  1
  C  C124  1  0.50000000  0.58775881  0.85978737  1
  C  C125  1  0.50000000  0.64758453  0.53182655  1
  C  C126  1  0.50000000  0.64822440  0.86037476  1
  C  C127  1  0.50000000  0.72996852  0.19489045  1
  C  C128  1  0.50000000  0.70979563  0.52848634  1
  C  C129  1  0.50000000  0.70803136  0.86045629  1
  C  C130  1  0.50000000  0.25850966  0.22331311  1
  C  C131  1  0.50000000  0.25824413  0.55668786  1
  C  C132  1  0.50000000  0.25822633  0.89015856  1
  C  C133  1  0.50000000  0.31777240  0.22217176  1
  C  C134  1  0.50000000  0.31750671  0.55554719  1
  C  C135  1  0.50000000  0.31750775  0.88887928  1
  C  C136  1  0.50000000  0.37791558  0.22217307  1
  C  C137  1  0.50000000  0.37762131  0.55557364  1
  C  C138  1  0.50000000  0.37762689  0.88877502  1
  C  C139  1  0.50000000  0.43785982  0.22230029  1
  C  C140  1  0.50000000  0.43754943  0.55586362  1
  C  C141  1  0.50000000  0.43761847  0.88882237  1
  C  C142  1  0.50000000  0.49794804  0.22200529  1
  C  C143  1  0.50000000  0.49755534  0.55597903  1
  C  C144  1  0.50000000  0.49756089  0.88854223  1
  C  C145  1  0.50000000  0.55835239  0.55631660  1
  C  C146  1  0.50000000  0.55781951  0.88783832  1
  C  C147  1  0.50000000  0.61810790  0.55856886  1
  C  C148  1  0.50000000  0.61795484  0.88647563  1
  C  C149  1  0.50000000  0.70098851  0.22356057  1
  C  C150  1  0.50000000  0.67861882  0.55534526  1
  C  C151  1  0.50000000  0.67829522  0.88858461  1
  C  C152  1  0.50000000  0.75928062  0.22303371  1
  C  C153  1  0.50000000  0.73784743  0.55913186  1
  C  C154  1  0.50000000  0.73735897  0.88769614  1
  C  C155  1  0.50000000  0.25848853  0.27647268  1
  C  C156  1  0.50000000  0.25819994  0.60989535  1
  C  C157  1  0.50000000  0.25826125  0.94335845  1
  C  C158  1  0.50000000  0.31775515  0.27771300  1
  C  C159  1  0.50000000  0.31745987  0.61113533  1
  C  C160  1  0.50000000  0.31754417  0.94440617  1
  C  C161  1  0.50000000  0.37790903  0.27774936  1
  C  C162  1  0.50000000  0.37760192  0.61115779  1
  C  C163  1  0.50000000  0.37764575  0.94436259  1
  C  C164  1  0.50000000  0.43785673  0.27763169  1
  C  C165  1  0.50000000  0.43760825  0.61109570  1
  C  C166  1  0.50000000  0.43756570  0.94406354  1
  C  C167  1  0.50000000  0.49794744  0.27798092  1
  C  C168  1  0.50000000  0.49757029  0.61134901  1
  C  C169  1  0.50000000  0.49754169  0.94390752  1
  C  C170  1  0.50000000  0.55784308  0.61210351  1
  C  C171  1  0.50000000  0.55831480  0.94362112  1
  C  C172  1  0.50000000  0.61797267  0.61352965  1
  C  C173  1  0.50000000  0.61808563  0.94143489  1
  C  C174  1  0.50000000  0.70092786  0.27644577  1
  C  C175  1  0.50000000  0.67833530  0.61148213  1
  C  C176  1  0.50000000  0.67857684  0.94471989  1
  C  C177  1  0.50000000  0.75922633  0.27718564  1
  C  C178  1  0.50000000  0.73740411  0.61247905  1
  C  C179  1  0.50000000  0.73778362  0.94102554  1
  H  H180  1  0.50000000  0.23497279  0.03678415  1
  H  H181  1  0.50000000  0.23499502  0.36998760  1
  H  H182  1  0.50000000  0.23470307  0.70363015  1
  H  H183  1  0.50000000  0.76867494  0.02534696  1
  H  H184  1  0.50000000  0.77783876  0.38343356  1
  H  H185  1  0.50000000  0.76065955  0.70374625  1
  H  H186  1  0.50000000  0.23506524  0.12999466  1
  H  H187  1  0.50000000  0.23488108  0.46295732  1
  H  H188  1  0.50000000  0.23474504  0.79660348  1
  H  H189  1  0.50000000  0.77790781  0.11655635  1
  H  H190  1  0.50000000  0.76874980  0.47465763  1
  H  H191  1  0.50000000  0.76059054  0.79663864  1
  H  H192  1  0.50000000  0.23512558  0.20327615  1
  H  H193  1  0.50000000  0.23479109  0.53685473  1
  H  H194  1  0.50000000  0.23478792  0.87021812  1
  H  H195  1  0.50000000  0.78269367  0.20280114  1
  H  H196  1  0.50000000  0.76172022  0.54087092  1
  H  H197  1  0.50000000  0.76064753  0.86750080  1
  H  H198  1  0.50000000  0.23505883  0.29636992  1
  H  H199  1  0.50000000  0.23473426  0.62973932  1
  H  H200  1  0.50000000  0.23484951  0.96335561  1
  H  H201  1  0.50000000  0.78258901  0.29758978  1
  H  H202  1  0.50000000  0.76061357  0.63293913  1
  H  H203  1  0.50000000  0.76165371  0.95930087  1
  H  H204  1  0.50000000  0.55070544  0.28732851  1
  H  H205  1  0.50000000  0.58945810  0.01072855  1
  H  H206  1  0.50000000  0.64435794  0.00958062  1
  H  H207  1  0.50000000  0.54967813  0.04656756  1
  H  H208  1  0.50000000  0.55054493  0.38022777  1
  H  H209  1  0.50000000  0.66473111  0.05421293  1
  H  H210  1  0.50000000  0.67372457  0.35924811  1
  H  H211  1  0.50000000  0.67385310  0.14112729  1
  H  H212  1  0.50000000  0.66479137  0.44621809  1
  H  H213  1  0.50000000  0.55064867  0.11993468  1
  H  H214  1  0.50000000  0.54960573  0.45306476  1
  H  H215  1  0.50000000  0.55065983  0.21289670  1
  H  H216  1  0.50000000  0.58952483  0.48917692  1
  H  H217  1  0.50000000  0.64434980  0.49052615  1
  H  H218  1  0.50000000  0.67731616  0.20478487  1
  H  H219  1  0.50000000  0.67718997  0.29500688  1
