# generated using pymatgen
data_H2C9
_symmetry_space_group_name_H-M   'P 1'
_cell_length_a   10.00000000
_cell_length_b   41.10890000
_cell_length_c   25.90870401
_cell_angle_alpha   90.00000000
_cell_angle_beta   90.00000000
_cell_angle_gamma   90.00000000
_symmetry_Int_Tables_number   1
_chemical_formula_structural   H2C9
_chemical_formula_sum   'H40 C180'
_cell_volume   10650.78322302
_cell_formula_units_Z   20
loop_
 _symmetry_equiv_pos_site_id
 _symmetry_equiv_pos_as_xyz
  1  'x, y, z'
loop_
 _atom_site_type_symbol
 _atom_site_label
 _atom_site_symmetry_multiplicity
 _atom_site_fract_x
 _atom_site_fract_y
 _atom_site_fract_z
 _atom_site_occupancy
  C  C0  1  0.50000000  0.28842623  0.30573050  1
  C  C1  1  0.50000000  0.28984530  0.63911402  1
  C  C2  1  0.50000000  0.28940039  0.97149354  1
  C  C3  1  0.50000000  0.34839489  0.30584792  1
  C  C4  1  0.50000000  0.34999549  0.63920992  1
  C  C5  1  0.50000000  0.34953614  0.97211306  1
  C  C6  1  0.50000000  0.40816903  0.30572311  1
  C  C7  1  0.50000000  0.41013887  0.63881401  1
  C  C8  1  0.50000000  0.40972550  0.97207876  1
  C  C9  1  0.50000000  0.46781247  0.30577398  1
  C  C10  1  0.50000000  0.47053394  0.63858187  1
  C  C11  1  0.50000000  0.47018560  0.97255529  1
  C  C12  1  0.50000000  0.52743664  0.30426730  1
  C  C13  1  0.50000000  0.53053425  0.63913098  1
  C  C14  1  0.50000000  0.53091309  0.97321737  1
  C  C15  1  0.50000000  0.59073767  0.64062993  1
  C  C16  1  0.50000000  0.59254894  0.96528615  1
  C  C17  1  0.50000000  0.65169462  0.64152486  1
  C  C18  1  0.50000000  0.65149206  0.96656743  1
  C  C19  1  0.50000000  0.71122506  0.30815834  1
  C  C20  1  0.50000000  0.71166674  0.64038361  1
  C  C21  1  0.50000000  0.71234221  0.97042547  1
  C  C22  1  0.50000000  0.28912694  0.02721572  1
  C  C23  1  0.50000000  0.28857050  0.36159813  1
  C  C24  1  0.50000000  0.28996892  0.69475134  1
  C  C25  1  0.50000000  0.34918548  0.02725392  1
  C  C26  1  0.50000000  0.34854374  0.36110795  1
  C  C27  1  0.50000000  0.35012823  0.69437490  1
  C  C28  1  0.50000000  0.40919192  0.02758459  1
  C  C29  1  0.50000000  0.40836246  0.36121977  1
  C  C30  1  0.50000000  0.41023385  0.69440032  1
  C  C31  1  0.50000000  0.46933086  0.02782057  1
  C  C32  1  0.50000000  0.46805618  0.36089605  1
  C  C33  1  0.50000000  0.47042481  0.69421277  1
  C  C34  1  0.50000000  0.52963274  0.02905676  1
  C  C35  1  0.50000000  0.52729516  0.35902258  1
  C  C36  1  0.50000000  0.53037657  0.69440618  1
  C  C37  1  0.50000000  0.59062067  0.69556356  1
  C  C38  1  0.50000000  0.65143239  0.69602039  1
  C  C39  1  0.50000000  0.71306556  0.02387294  1
  C  C40  1  0.50000000  0.71174223  0.36118440  1
  C  C41  1  0.50000000  0.71170803  0.69510145  1
  C  C42  1  0.50000000  0.25965389  0.05595136  1
  C  C43  1  0.50000000  0.25937142  0.39091388  1
  C  C44  1  0.50000000  0.26054312  0.72347608  1
  C  C45  1  0.50000000  0.31895369  0.05511396  1
  C  C46  1  0.50000000  0.31858047  0.38918254  1
  C  C47  1  0.50000000  0.31998489  0.72225580  1
  C  C48  1  0.50000000  0.37907518  0.05536566  1
  C  C49  1  0.50000000  0.37859161  0.38915810  1
  C  C50  1  0.50000000  0.38025762  0.72224965  1
  C  C51  1  0.50000000  0.43900513  0.05557023  1
  C  C52  1  0.50000000  0.43834761  0.38912604  1
  C  C53  1  0.50000000  0.44035604  0.72231701  1
  C  C54  1  0.50000000  0.49910267  0.05603944  1
  C  C55  1  0.50000000  0.49817236  0.38830570  1
  C  C56  1  0.50000000  0.50033329  0.72221579  1
  C  C57  1  0.50000000  0.55746375  0.06179761  1
  C  C58  1  0.50000000  0.55678502  0.38588169  1
  C  C59  1  0.50000000  0.56042814  0.72248772  1
  C  C60  1  0.50000000  0.62092883  0.72266870  1
  C  C61  1  0.50000000  0.68163646  0.72269122  1
  C  C62  1  0.50000000  0.74115034  0.05501358  1
  C  C63  1  0.50000000  0.74045225  0.39179997  1
  C  C64  1  0.50000000  0.74128571  0.72366163  1
  C  C65  1  0.50000000  0.25935094  0.10909080  1
  C  C66  1  0.50000000  0.25964514  0.44404573  1
  C  C67  1  0.50000000  0.26054650  0.77647651  1
  C  C68  1  0.50000000  0.31857785  0.11074907  1
  C  C69  1  0.50000000  0.31894343  0.44483367  1
  C  C70  1  0.50000000  0.31998763  0.77771381  1
  C  C71  1  0.50000000  0.37857971  0.11083147  1
  C  C72  1  0.50000000  0.37906964  0.44461231  1
  C  C73  1  0.50000000  0.38025475  0.77771507  1
  C  C74  1  0.50000000  0.43834688  0.11087686  1
  C  C75  1  0.50000000  0.43901458  0.44443513  1
  C  C76  1  0.50000000  0.44034478  0.77771142  1
  C  C77  1  0.50000000  0.49817371  0.11169797  1
  C  C78  1  0.50000000  0.49910227  0.44396349  1
  C  C79  1  0.50000000  0.50033885  0.77777384  1
  C  C80  1  0.50000000  0.55678269  0.11413934  1
  C  C81  1  0.50000000  0.55746232  0.43822190  1
  C  C82  1  0.50000000  0.56043618  0.77750256  1
  C  C83  1  0.50000000  0.62092492  0.77735004  1
  C  C84  1  0.50000000  0.68163329  0.77732597  1
  C  C85  1  0.50000000  0.74043082  0.10823136  1
  C  C86  1  0.50000000  0.74117444  0.44501642  1
  C  C87  1  0.50000000  0.74128124  0.77636267  1
  C  C88  1  0.50000000  0.28854987  0.13842968  1
  C  C89  1  0.50000000  0.28912336  0.47275065  1
  C  C90  1  0.50000000  0.28996970  0.80521132  1
  C  C91  1  0.50000000  0.34852344  0.13888051  1
  C  C92  1  0.50000000  0.34917325  0.47270644  1
  C  C93  1  0.50000000  0.35013233  0.80559275  1
  C  C94  1  0.50000000  0.40835908  0.13876813  1
  C  C95  1  0.50000000  0.40918651  0.47241105  1
  C  C96  1  0.50000000  0.41022497  0.80558323  1
  C  C97  1  0.50000000  0.46805821  0.13910499  1
  C  C98  1  0.50000000  0.46934299  0.47221051  1
  C  C99  1  0.50000000  0.47042778  0.80578700  1
  C  C100  1  0.50000000  0.52729636  0.14098992  1
  C  C101  1  0.50000000  0.52962674  0.47094154  1
  C  C102  1  0.50000000  0.53039030  0.80557020  1
  C  C103  1  0.50000000  0.59062274  0.80445218  1
  C  C104  1  0.50000000  0.65142579  0.80399285  1
  C  C105  1  0.50000000  0.71171917  0.13885046  1
  C  C106  1  0.50000000  0.71308583  0.47615542  1
  C  C107  1  0.50000000  0.71170545  0.80491839  1
  C  C108  1  0.50000000  0.28841453  0.19432826  1
  C  C109  1  0.50000000  0.28940653  0.52846615  1
  C  C110  1  0.50000000  0.28984719  0.86084510  1
  C  C111  1  0.50000000  0.34838807  0.19414212  1
  C  C112  1  0.50000000  0.34953209  0.52783723  1
  C  C113  1  0.50000000  0.35000652  0.86075632  1
  C  C114  1  0.50000000  0.40817930  0.19426702  1
  C  C115  1  0.50000000  0.40974084  0.52790603  1
  C  C116  1  0.50000000  0.41016324  0.86112959  1
  C  C117  1  0.50000000  0.46781864  0.19423543  1
  C  C118  1  0.50000000  0.47019988  0.52748214  1
  C  C119  1  0.50000000  0.47055055  0.86140835  1
  C  C120  1  0.50000000  0.52744488  0.19574658  1
  C  C121  1  0.50000000  0.53092016  0.52677558  1
  C  C122  1  0.50000000  0.53055370  0.86085009  1
  C  C123  1  0.50000000  0.59253642  0.53473674  1
  C  C124  1  0.50000000  0.59073669  0.85937368  1
  C  C125  1  0.50000000  0.65149129  0.53344702  1
  C  C126  1  0.50000000  0.65169463  0.85849203  1
  C  C127  1  0.50000000  0.71120359  0.19187704  1
  C  C128  1  0.50000000  0.71235659  0.52960023  1
  C  C129  1  0.50000000  0.71166713  0.85964133  1
  C  C130  1  0.50000000  0.25910457  0.22340573  1
  C  C131  1  0.50000000  0.26013815  0.55753240  1
  C  C132  1  0.50000000  0.26034669  0.88938221  1
  C  C133  1  0.50000000  0.31830736  0.22214127  1
  C  C134  1  0.50000000  0.31949840  0.55587820  1
  C  C135  1  0.50000000  0.31976379  0.88855082  1
  C  C136  1  0.50000000  0.37829562  0.22225808  1
  C  C137  1  0.50000000  0.37977395  0.55570367  1
  C  C138  1  0.50000000  0.38004850  0.88880644  1
  C  C139  1  0.50000000  0.43795898  0.22232750  1
  C  C140  1  0.50000000  0.44006496  0.55558344  1
  C  C141  1  0.50000000  0.44020190  0.88910797  1
  C  C142  1  0.50000000  0.49752061  0.22251793  1
  C  C143  1  0.50000000  0.50084429  0.55479473  1
  C  C144  1  0.50000000  0.50056919  0.88921021  1
  C  C145  1  0.50000000  0.55713242  0.22368145  1
  C  C146  1  0.50000000  0.56143653  0.55645468  1
  C  C147  1  0.50000000  0.56081600  0.88791512  1
  C  C148  1  0.50000000  0.62191720  0.56127876  1
  C  C149  1  0.50000000  0.62146716  0.88457442  1
  C  C150  1  0.50000000  0.68144502  0.55787349  1
  C  C151  1  0.50000000  0.68168199  0.88655017  1
  C  C152  1  0.50000000  0.73948001  0.22353189  1
  C  C153  1  0.50000000  0.74182386  0.55914311  1
  C  C154  1  0.50000000  0.74149378  0.88841189  1
  C  C155  1  0.50000000  0.25909617  0.27660968  1
  C  C156  1  0.50000000  0.26034791  0.61056806  1
  C  C157  1  0.50000000  0.26013464  0.94241909  1
  C  C158  1  0.50000000  0.31830740  0.27788001  1
  C  C159  1  0.50000000  0.31975817  0.61140863  1
  C  C160  1  0.50000000  0.31949733  0.94408285  1
  C  C161  1  0.50000000  0.37829606  0.27773051  1
  C  C162  1  0.50000000  0.38002858  0.61114773  1
  C  C163  1  0.50000000  0.37976941  0.94424304  1
  C  C164  1  0.50000000  0.43795425  0.27767760  1
  C  C165  1  0.50000000  0.44019378  0.61089175  1
  C  C166  1  0.50000000  0.44006445  0.94440879  1
  C  C167  1  0.50000000  0.49751227  0.27748505  1
  C  C168  1  0.50000000  0.50054826  0.61075984  1
  C  C169  1  0.50000000  0.50083445  0.94522152  1
  C  C170  1  0.50000000  0.55712915  0.27633848  1
  C  C171  1  0.50000000  0.56080073  0.61209027  1
  C  C172  1  0.50000000  0.56143385  0.94354980  1
  C  C173  1  0.50000000  0.62147560  0.61544077  1
  C  C174  1  0.50000000  0.62192717  0.93873129  1
  C  C175  1  0.50000000  0.68168109  0.61347137  1
  C  C176  1  0.50000000  0.68144078  0.94214628  1
  C  C177  1  0.50000000  0.73949082  0.27647596  1
  C  C178  1  0.50000000  0.74149961  0.61162557  1
  C  C179  1  0.50000000  0.74181309  0.94089264  1
  H  H180  1  0.50000000  0.23631307  0.03575370  1
  H  H181  1  0.50000000  0.23584637  0.37127557  1
  H  H182  1  0.50000000  0.23713801  0.70345921  1
  H  H183  1  0.50000000  0.76509172  0.03642808  1
  H  H184  1  0.50000000  0.76396254  0.37194551  1
  H  H185  1  0.50000000  0.76458064  0.70346631  1
  H  H186  1  0.50000000  0.23580941  0.12869796  1
  H  H187  1  0.50000000  0.23630177  0.46423610  1
  H  H188  1  0.50000000  0.23714137  0.79648917  1
  H  H189  1  0.50000000  0.76395158  0.12806233  1
  H  H190  1  0.50000000  0.76511323  0.46361030  1
  H  H191  1  0.50000000  0.76457205  0.79656369  1
  H  H192  1  0.50000000  0.23569738  0.20338417  1
  H  H193  1  0.50000000  0.23664224  0.53780716  1
  H  H194  1  0.50000000  0.23699917  0.86920046  1
  H  H195  1  0.50000000  0.76325333  0.20439859  1
  H  H196  1  0.50000000  0.76527354  0.53924733  1
  H  H197  1  0.50000000  0.76472830  0.86804071  1
  H  H198  1  0.50000000  0.23568332  0.29662203  1
  H  H199  1  0.50000000  0.23699779  0.63073866  1
  H  H200  1  0.50000000  0.23664117  0.96214472  1
  H  H201  1  0.50000000  0.76327216  0.29558357  1
  H  H202  1  0.50000000  0.76474315  0.63198172  1
  H  H203  1  0.50000000  0.76525148  0.96081976  1
  H  H204  1  0.50000000  0.59741645  0.00563267  1
  H  H205  1  0.50000000  0.64959380  0.00873814  1
  H  H206  1  0.50000000  0.68735447  0.28924801  1
  H  H207  1  0.50000000  0.68976564  0.04412363  1
  H  H208  1  0.50000000  0.68809671  0.38077774  1
  H  H209  1  0.50000000  0.58180211  0.04793836  1
  H  H210  1  0.50000000  0.58002841  0.36558102  1
  H  H211  1  0.50000000  0.58002531  0.13442691  1
  H  H212  1  0.50000000  0.58180881  0.45208522  1
  H  H213  1  0.50000000  0.68806892  0.11926607  1
  H  H214  1  0.50000000  0.68977898  0.45592407  1
  H  H215  1  0.50000000  0.59740489  0.49439021  1
  H  H216  1  0.50000000  0.64957813  0.49128124  1
  H  H217  1  0.50000000  0.68734002  0.21081323  1
  H  H218  1  0.50000000  0.58046292  0.20361931  1
  H  H219  1  0.50000000  0.58045270  0.29641851  1
