# generated using pymatgen
data_H2C9
_symmetry_space_group_name_H-M   'P 1'
_cell_length_a   20.00000000
_cell_length_b   37.22700000
_cell_length_c   25.76761029
_cell_angle_alpha   90.00000000
_cell_angle_beta   90.00000000
_cell_angle_gamma   90.00000000
_symmetry_Int_Tables_number   1
_chemical_formula_structural   H2C9
_chemical_formula_sum   'H36 C162'
_cell_volume   19185.01656484
_cell_formula_units_Z   18
loop_
 _symmetry_equiv_pos_site_id
 _symmetry_equiv_pos_as_xyz
  1  'x, y, z'
loop_
 _atom_site_type_symbol
 _atom_site_label
 _atom_site_symmetry_multiplicity
 _atom_site_fract_x
 _atom_site_fract_y
 _atom_site_fract_z
 _atom_site_occupancy
  C  C0  1  0.50000000  0.30766309  0.22168477  1
  C  C1  1  0.50000000  0.31399366  0.55772063  1
  C  C2  1  0.50000000  0.31531326  0.88682455  1
  C  C3  1  0.50000000  0.37371356  0.22231709  1
  C  C4  1  0.50000000  0.38065323  0.55652886  1
  C  C5  1  0.50000000  0.38204414  0.88839227  1
  C  C6  1  0.50000000  0.43929872  0.22224944  1
  C  C7  1  0.50000000  0.44794417  0.55467714  1
  C  C8  1  0.50000000  0.44906097  0.88961748  1
  C  C9  1  0.50000000  0.51684886  0.55191577  1
  C  C10  1  0.50000000  0.51670080  0.89210047  1
  C  C11  1  0.50000000  0.59565269  0.22209587  1
  C  C12  1  0.50000000  0.58550184  0.55475873  1
  C  C13  1  0.50000000  0.58411326  0.88944712  1
  C  C14  1  0.50000000  0.66138966  0.22194392  1
  C  C15  1  0.50000000  0.65289566  0.55715630  1
  C  C16  1  0.50000000  0.65125018  0.88762372  1
  C  C17  1  0.50000000  0.72622220  0.22292009  1
  C  C18  1  0.50000000  0.71859867  0.56085277  1
  C  C19  1  0.50000000  0.71722290  0.88617187  1
  C  C20  1  0.50000000  0.30767718  0.27824667  1
  C  C21  1  0.50000000  0.31528380  0.61320377  1
  C  C22  1  0.50000000  0.31400583  0.94228586  1
  C  C23  1  0.50000000  0.37371649  0.27765498  1
  C  C24  1  0.50000000  0.38202811  0.61158950  1
  C  C25  1  0.50000000  0.38065861  0.94345504  1
  C  C26  1  0.50000000  0.43930139  0.27775992  1
  C  C27  1  0.50000000  0.44906226  0.61036382  1
  C  C28  1  0.50000000  0.44794054  0.94531282  1
  C  C29  1  0.50000000  0.51670526  0.60789486  1
  C  C30  1  0.50000000  0.51683871  0.94808373  1
  C  C31  1  0.50000000  0.59566085  0.27786877  1
  C  C32  1  0.50000000  0.58412476  0.61056190  1
  C  C33  1  0.50000000  0.58547136  0.94525618  1
  C  C34  1  0.50000000  0.66139415  0.27800573  1
  C  C35  1  0.50000000  0.65126181  0.61239875  1
  C  C36  1  0.50000000  0.65286577  0.94285765  1
  C  C37  1  0.50000000  0.72623037  0.27697783  1
  C  C38  1  0.50000000  0.71720785  0.61389817  1
  C  C39  1  0.50000000  0.71859178  0.93923047  1
  C  C40  1  0.50000000  0.27567349  0.30857139  1
  C  C41  1  0.50000000  0.28300230  0.64203825  1
  C  C42  1  0.50000000  0.28074942  0.96936442  1
  C  C43  1  0.50000000  0.34081396  0.30605946  1
  C  C44  1  0.50000000  0.34889519  0.63974255  1
  C  C45  1  0.50000000  0.34655850  0.97061225  1
  C  C46  1  0.50000000  0.40683186  0.30573423  1
  C  C47  1  0.50000000  0.41592964  0.63878338  1
  C  C48  1  0.50000000  0.41357235  0.97191762  1
  C  C49  1  0.50000000  0.47169340  0.30548186  1
  C  C50  1  0.50000000  0.48307146  0.63734466  1
  C  C51  1  0.50000000  0.48116908  0.97477965  1
  C  C52  1  0.50000000  0.56332183  0.30519393  1
  C  C53  1  0.50000000  0.55021296  0.63725938  1
  C  C54  1  0.50000000  0.55239796  0.97474707  1
  C  C55  1  0.50000000  0.62805455  0.30599086  1
  C  C56  1  0.50000000  0.61719779  0.63915390  1
  C  C57  1  0.50000000  0.61999069  0.97158728  1
  C  C58  1  0.50000000  0.69406992  0.30645693  1
  C  C59  1  0.50000000  0.68401387  0.64044736  1
  C  C60  1  0.50000000  0.68683054  0.96890990  1
  C  C61  1  0.50000000  0.27904415  0.02253811  1
  C  C62  1  0.50000000  0.27637611  0.36217696  1
  C  C63  1  0.50000000  0.28358450  0.69497911  1
  C  C64  1  0.50000000  0.34441775  0.02618515  1
  C  C65  1  0.50000000  0.34169573  0.36223368  1
  C  C66  1  0.50000000  0.34956742  0.69501916  1
  C  C67  1  0.50000000  0.41068062  0.02729023  1
  C  C68  1  0.50000000  0.40777762  0.36130705  1
  C  C69  1  0.50000000  0.41642417  0.69439584  1
  C  C70  1  0.50000000  0.47596519  0.02888374  1
  C  C71  1  0.50000000  0.47231282  0.35843353  1
  C  C72  1  0.50000000  0.48320959  0.69330835  1
  C  C73  1  0.50000000  0.55804173  0.02920383  1
  C  C74  1  0.50000000  0.56240633  0.35828836  1
  C  C75  1  0.50000000  0.54989069  0.69348522  1
  C  C76  1  0.50000000  0.62323738  0.02670864  1
  C  C77  1  0.50000000  0.62681640  0.36152347  1
  C  C78  1  0.50000000  0.61650902  0.69442445  1
  C  C79  1  0.50000000  0.68938881  0.02481314  1
  C  C80  1  0.50000000  0.69288276  0.36351773  1
  C  C81  1  0.50000000  0.68324824  0.69577871  1
  C  C82  1  0.50000000  0.31069913  0.05295726  1
  C  C83  1  0.50000000  0.30914869  0.39088623  1
  C  C84  1  0.50000000  0.31648016  0.72239983  1
  C  C85  1  0.50000000  0.37693295  0.05482134  1
  C  C86  1  0.50000000  0.37518482  0.38991533  1
  C  C87  1  0.50000000  0.38314563  0.72244786  1
  C  C88  1  0.50000000  0.44296680  0.05556845  1
  C  C89  1  0.50000000  0.44096235  0.38825530  1
  C  C90  1  0.50000000  0.44991565  0.72193398  1
  C  C91  1  0.50000000  0.51657302  0.72204929  1
  C  C92  1  0.50000000  0.59102859  0.05529481  1
  C  C93  1  0.50000000  0.59349167  0.38821083  1
  C  C94  1  0.50000000  0.58302688  0.72196363  1
  C  C95  1  0.50000000  0.65725932  0.05376568  1
  C  C96  1  0.50000000  0.65942436  0.39043270  1
  C  C97  1  0.50000000  0.64985357  0.72240572  1
  C  C98  1  0.50000000  0.72257210  0.05192955  1
  C  C99  1  0.50000000  0.72430059  0.39437452  1
  C  C100  1  0.50000000  0.71587262  0.72359200  1
  C  C101  1  0.50000000  0.30916419  0.10907548  1
  C  C102  1  0.50000000  0.31068625  0.44702854  1
  C  C103  1  0.50000000  0.31646861  0.77766476  1
  C  C104  1  0.50000000  0.37519435  0.11006801  1
  C  C105  1  0.50000000  0.37692961  0.44516891  1
  C  C106  1  0.50000000  0.38314118  0.77755019  1
  C  C107  1  0.50000000  0.44097289  0.11173091  1
  C  C108  1  0.50000000  0.44296784  0.44441528  1
  C  C109  1  0.50000000  0.44991860  0.77804223  1
  C  C110  1  0.50000000  0.51657576  0.77793858  1
  C  C111  1  0.50000000  0.59349336  0.11177821  1
  C  C112  1  0.50000000  0.59103963  0.44470138  1
  C  C113  1  0.50000000  0.58302101  0.77804421  1
  C  C114  1  0.50000000  0.65942323  0.10953330  1
  C  C115  1  0.50000000  0.65728053  0.44622023  1
  C  C116  1  0.50000000  0.64984673  0.77763957  1
  C  C117  1  0.50000000  0.72430848  0.10555846  1
  C  C118  1  0.50000000  0.72259945  0.44801100  1
  C  C119  1  0.50000000  0.71586067  0.77649745  1
  C  C120  1  0.50000000  0.27637293  0.13772308  1
  C  C121  1  0.50000000  0.27902731  0.47745084  1
  C  C122  1  0.50000000  0.28356913  0.80512933  1
  C  C123  1  0.50000000  0.34170469  0.13773423  1
  C  C124  1  0.50000000  0.34440783  0.47379998  1
  C  C125  1  0.50000000  0.34956906  0.80500184  1
  C  C126  1  0.50000000  0.40778792  0.13867531  1
  C  C127  1  0.50000000  0.41068320  0.47269273  1
  C  C128  1  0.50000000  0.41642976  0.80558934  1
  C  C129  1  0.50000000  0.47231271  0.14156853  1
  C  C130  1  0.50000000  0.47596343  0.47111051  1
  C  C131  1  0.50000000  0.48320823  0.80667847  1
  C  C132  1  0.50000000  0.56240360  0.14168791  1
  C  C133  1  0.50000000  0.55807072  0.47084869  1
  C  C134  1  0.50000000  0.54988751  0.80651304  1
  C  C135  1  0.50000000  0.62681777  0.13844686  1
  C  C136  1  0.50000000  0.62325658  0.47328522  1
  C  C137  1  0.50000000  0.61649958  0.80559648  1
  C  C138  1  0.50000000  0.69288864  0.13642137  1
  C  C139  1  0.50000000  0.68942063  0.47517463  1
  C  C140  1  0.50000000  0.68323733  0.80429064  1
  C  C141  1  0.50000000  0.27565021  0.19133780  1
  C  C142  1  0.50000000  0.28073323  0.53064691  1
  C  C143  1  0.50000000  0.28301530  0.85806847  1
  C  C144  1  0.50000000  0.34081105  0.19390327  1
  C  C145  1  0.50000000  0.34654933  0.52937766  1
  C  C146  1  0.50000000  0.34890869  0.86026656  1
  C  C147  1  0.50000000  0.40683403  0.19425295  1
  C  C148  1  0.50000000  0.41357496  0.52807231  1
  C  C149  1  0.50000000  0.41593826  0.86119817  1
  C  C150  1  0.50000000  0.47168923  0.19451972  1
  C  C151  1  0.50000000  0.48117482  0.52520929  1
  C  C152  1  0.50000000  0.48307246  0.86264480  1
  C  C153  1  0.50000000  0.56330500  0.19477796  1
  C  C154  1  0.50000000  0.55242970  0.52528516  1
  C  C155  1  0.50000000  0.55020610  0.86274222  1
  C  C156  1  0.50000000  0.62804916  0.19397155  1
  C  C157  1  0.50000000  0.62002058  0.52841869  1
  C  C158  1  0.50000000  0.61719010  0.86085991  1
  C  C159  1  0.50000000  0.69405925  0.19347295  1
  C  C160  1  0.50000000  0.68686459  0.53109464  1
  C  C161  1  0.50000000  0.68401526  0.85962163  1
  H  H162  1  0.50000000  0.75222823  0.20307184  1
  H  H163  1  0.50000000  0.74485828  0.54198160  1
  H  H164  1  0.50000000  0.74257662  0.86495728  1
  H  H165  1  0.50000000  0.75226006  0.29675907  1
  H  H166  1  0.50000000  0.74258910  0.63503327  1
  H  H167  1  0.50000000  0.74478130  0.95831024  1
  H  H168  1  0.50000000  0.24949419  0.28928113  1
  H  H169  1  0.50000000  0.25697876  0.62258965  1
  H  H170  1  0.50000000  0.25547949  0.94792955  1
  H  H171  1  0.50000000  0.25265518  0.04107994  1
  H  H172  1  0.50000000  0.25061936  0.38263193  1
  H  H173  1  0.50000000  0.25799714  0.71558844  1
  H  H174  1  0.50000000  0.74788002  0.03045731  1
  H  H175  1  0.50000000  0.75071220  0.37577621  1
  H  H176  1  0.50000000  0.74169061  0.70364329  1
  H  H177  1  0.50000000  0.75074608  0.12408343  1
  H  H178  1  0.50000000  0.74794719  0.46939842  1
  H  H179  1  0.50000000  0.74165054  0.79655124  1
  H  H180  1  0.50000000  0.25067148  0.11709458  1
  H  H181  1  0.50000000  0.25268475  0.45874792  1
  H  H182  1  0.50000000  0.25794968  0.78460937  1
  H  H183  1  0.50000000  0.24946198  0.21061672  1
  H  H184  1  0.50000000  0.25553318  0.55228422  1
  H  H185  1  0.50000000  0.25705196  0.87770813  1
  H  H186  1  0.50000000  0.49667773  0.28431455  1
  H  H187  1  0.50000000  0.53839446  0.28393790  1
  H  H188  1  0.50000000  0.49878102  0.05410139  1
  H  H189  1  0.50000000  0.49768447  0.37836138  1
  H  H190  1  0.50000000  0.53544271  0.05485901  1
  H  H191  1  0.50000000  0.53684991  0.37772361  1
  H  H192  1  0.50000000  0.49769583  0.12169921  1
  H  H193  1  0.50000000  0.49879735  0.44594555  1
  H  H194  1  0.50000000  0.53687705  0.12215797  1
  H  H195  1  0.50000000  0.53539505  0.44537604  1
  H  H196  1  0.50000000  0.49669707  0.21563131  1
  H  H197  1  0.50000000  0.53839436  0.21609968  1
