# generated using pymatgen
data_H19C81
_symmetry_space_group_name_H-M   'P 1'
_cell_length_a   20.00000000
_cell_length_b   37.22700000
_cell_length_c   25.91735177
_cell_angle_alpha   90.00000000
_cell_angle_beta   90.00000000
_cell_angle_gamma   90.00000000
_symmetry_Int_Tables_number   1
_chemical_formula_structural   H19C81
_chemical_formula_sum   'H38 C162'
_cell_volume   19296.50508501
_cell_formula_units_Z   2
loop_
 _symmetry_equiv_pos_site_id
 _symmetry_equiv_pos_as_xyz
  1  'x, y, z'
loop_
 _atom_site_type_symbol
 _atom_site_label
 _atom_site_symmetry_multiplicity
 _atom_site_fract_x
 _atom_site_fract_y
 _atom_site_fract_z
 _atom_site_occupancy
  C  C0  1  0.50000000  0.31069423  0.22189151  1
  C  C1  1  0.50000000  0.31370398  0.55644377  1
  C  C2  1  0.50000000  0.31432122  0.88784240  1
  C  C3  1  0.50000000  0.37687669  0.22234392  1
  C  C4  1  0.50000000  0.38015876  0.55614027  1
  C  C5  1  0.50000000  0.38083732  0.88868239  1
  C  C6  1  0.50000000  0.44268489  0.22224026  1
  C  C7  1  0.50000000  0.44667476  0.55561555  1
  C  C8  1  0.50000000  0.44722764  0.88901643  1
  C  C9  1  0.50000000  0.50838938  0.22255070  1
  C  C10  1  0.50000000  0.51400760  0.55467186  1
  C  C11  1  0.50000000  0.51405142  0.88926542  1
  C  C12  1  0.50000000  0.57403308  0.22365026  1
  C  C13  1  0.50000000  0.58161189  0.55555710  1
  C  C14  1  0.50000000  0.58086308  0.88861919  1
  C  C15  1  0.50000000  0.68193421  0.22348839  1
  C  C16  1  0.50000000  0.65006131  0.55765170  1
  C  C17  1  0.50000000  0.64851654  0.88710741  1
  C  C18  1  0.50000000  0.74587796  0.22277456  1
  C  C19  1  0.50000000  0.71523558  0.56166618  1
  C  C20  1  0.50000000  0.71381146  0.88517088  1
  C  C21  1  0.50000000  0.31068627  0.27810279  1
  C  C22  1  0.50000000  0.31433061  0.61221901  1
  C  C23  1  0.50000000  0.31372259  0.94361376  1
  C  C24  1  0.50000000  0.37686875  0.27769091  1
  C  C25  1  0.50000000  0.38081406  0.61131738  1
  C  C26  1  0.50000000  0.38017600  0.94387153  1
  C  C27  1  0.50000000  0.44267899  0.27778552  1
  C  C28  1  0.50000000  0.44722651  0.61105397  1
  C  C29  1  0.50000000  0.44667080  0.94443691  1
  C  C30  1  0.50000000  0.50839054  0.27746223  1
  C  C31  1  0.50000000  0.51405272  0.61081621  1
  C  C32  1  0.50000000  0.51401524  0.94537814  1
  C  C33  1  0.50000000  0.57404169  0.27632274  1
  C  C34  1  0.50000000  0.58086448  0.61134576  1
  C  C35  1  0.50000000  0.58161264  0.94441149  1
  C  C36  1  0.50000000  0.68192696  0.27639887  1
  C  C37  1  0.50000000  0.64852233  0.61285843  1
  C  C38  1  0.50000000  0.65006071  0.94231349  1
  C  C39  1  0.50000000  0.74586460  0.27716219  1
  C  C40  1  0.50000000  0.71380269  0.61479080  1
  C  C41  1  0.50000000  0.71525492  0.93828844  1
  C  C42  1  0.50000000  0.27859220  0.30758393  1
  C  C43  1  0.50000000  0.28213445  0.64097133  1
  C  C44  1  0.50000000  0.28101937  0.97161649  1
  C  C45  1  0.50000000  0.34379493  0.30581940  1
  C  C46  1  0.50000000  0.34762223  0.63934259  1
  C  C47  1  0.50000000  0.34650794  0.97152109  1
  C  C48  1  0.50000000  0.40991067  0.30572001  1
  C  C49  1  0.50000000  0.41419949  0.63882063  1
  C  C50  1  0.50000000  0.41306912  0.97185367  1
  C  C51  1  0.50000000  0.47562437  0.30575544  1
  C  C52  1  0.50000000  0.48094897  0.63860653  1
  C  C53  1  0.50000000  0.47981193  0.97253525  1
  C  C54  1  0.50000000  0.54138547  0.30408708  1
  C  C55  1  0.50000000  0.54742147  0.63879713  1
  C  C56  1  0.50000000  0.54708038  0.97345676  1
  C  C57  1  0.50000000  0.61424537  0.63898985  1
  C  C58  1  0.50000000  0.61614933  0.96637867  1
  C  C59  1  0.50000000  0.71364931  0.30585142  1
  C  C60  1  0.50000000  0.68106664  0.64114323  1
  C  C61  1  0.50000000  0.68474413  0.96970960  1
  C  C62  1  0.50000000  0.28019692  0.02480446  1
  C  C63  1  0.50000000  0.27893902  0.36092083  1
  C  C64  1  0.50000000  0.28237264  0.69402459  1
  C  C65  1  0.50000000  0.34554987  0.02702349  1
  C  C66  1  0.50000000  0.34421713  0.36158393  1
  C  C67  1  0.50000000  0.34789012  0.69467096  1
  C  C68  1  0.50000000  0.41187597  0.02746561  1
  C  C69  1  0.50000000  0.41036510  0.36139042  1
  C  C70  1  0.50000000  0.41442321  0.69461697  1
  C  C71  1  0.50000000  0.47802762  0.02773336  1
  C  C72  1  0.50000000  0.47607524  0.36085393  1
  C  C73  1  0.50000000  0.48098704  0.69431204  1
  C  C74  1  0.50000000  0.54416211  0.02929092  1
  C  C75  1  0.50000000  0.54134802  0.35896029  1
  C  C76  1  0.50000000  0.54732503  0.69424406  1
  C  C77  1  0.50000000  0.61369891  0.69449051  1
  C  C78  1  0.50000000  0.69303583  0.02623495  1
  C  C79  1  0.50000000  0.70951575  0.36271115  1
  C  C80  1  0.50000000  0.68030506  0.69625835  1
  C  C81  1  0.50000000  0.31217104  0.05428556  1
  C  C82  1  0.50000000  0.31140810  0.38966965  1
  C  C83  1  0.50000000  0.31486086  0.72216578  1
  C  C84  1  0.50000000  0.37850189  0.05521918  1
  C  C85  1  0.50000000  0.37760324  0.38952262  1
  C  C86  1  0.50000000  0.38134197  0.72236590  1
  C  C87  1  0.50000000  0.44450191  0.05539026  1
  C  C88  1  0.50000000  0.44345631  0.38913016  1
  C  C89  1  0.50000000  0.44766531  0.72228778  1
  C  C90  1  0.50000000  0.51053823  0.05610545  1
  C  C91  1  0.50000000  0.50934603  0.38823837  1
  C  C92  1  0.50000000  0.51410279  0.72204839  1
  C  C93  1  0.50000000  0.57426323  0.06203835  1
  C  C94  1  0.50000000  0.57382649  0.38566661  1
  C  C95  1  0.50000000  0.58065248  0.72204823  1
  C  C96  1  0.50000000  0.66695979  0.06510415  1
  C  C97  1  0.50000000  0.67458318  0.38276946  1
  C  C98  1  0.50000000  0.64688914  0.72252641  1
  C  C99  1  0.50000000  0.72875081  0.04647082  1
  C  C100  1  0.50000000  0.73671624  0.40059222  1
  C  C101  1  0.50000000  0.71278713  0.72363792  1
  C  C102  1  0.50000000  0.31145511  0.11034432  1
  C  C103  1  0.50000000  0.31212106  0.44574889  1
  C  C104  1  0.50000000  0.31485486  0.77790578  1
  C  C105  1  0.50000000  0.37763744  0.11050446  1
  C  C106  1  0.50000000  0.37846325  0.44480797  1
  C  C107  1  0.50000000  0.38132289  0.77770779  1
  C  C108  1  0.50000000  0.44347146  0.11089153  1
  C  C109  1  0.50000000  0.44448345  0.44462648  1
  C  C110  1  0.50000000  0.44764363  0.77788840  1
  C  C111  1  0.50000000  0.50935258  0.11175173  1
  C  C112  1  0.50000000  0.51052773  0.44387932  1
  C  C113  1  0.50000000  0.51409168  0.77787910  1
  C  C114  1  0.50000000  0.57382209  0.11431941  1
  C  C115  1  0.50000000  0.57425735  0.43793520  1
  C  C116  1  0.50000000  0.58065623  0.77790610  1
  C  C117  1  0.50000000  0.67460450  0.11713420  1
  C  C118  1  0.50000000  0.66694278  0.43479793  1
  C  C119  1  0.50000000  0.64688077  0.77744455  1
  C  C120  1  0.50000000  0.73673039  0.09932457  1
  C  C121  1  0.50000000  0.72872890  0.45344188  1
  C  C122  1  0.50000000  0.71277058  0.77635683  1
  C  C123  1  0.50000000  0.27897846  0.13905607  1
  C  C124  1  0.50000000  0.28014916  0.47525975  1
  C  C125  1  0.50000000  0.28236415  0.80604622  1
  C  C126  1  0.50000000  0.34425261  0.13843984  1
  C  C127  1  0.50000000  0.34550931  0.47301392  1
  C  C128  1  0.50000000  0.34788106  0.80539819  1
  C  C129  1  0.50000000  0.41038712  0.13864623  1
  C  C130  1  0.50000000  0.41185314  0.47255810  1
  C  C131  1  0.50000000  0.41438663  0.80548642  1
  C  C132  1  0.50000000  0.47608694  0.13916249  1
  C  C133  1  0.50000000  0.47801695  0.47227978  1
  C  C134  1  0.50000000  0.48098526  0.80580637  1
  C  C135  1  0.50000000  0.54134747  0.14102714  1
  C  C136  1  0.50000000  0.54415211  0.47069122  1
  C  C137  1  0.50000000  0.54732929  0.80568208  1
  C  C138  1  0.50000000  0.61369535  0.80547034  1
  C  C139  1  0.50000000  0.70953574  0.13719824  1
  C  C140  1  0.50000000  0.69301985  0.47368100  1
  C  C141  1  0.50000000  0.68028401  0.80372230  1
  C  C142  1  0.50000000  0.27861260  0.19238790  1
  C  C143  1  0.50000000  0.28099247  0.52846433  1
  C  C144  1  0.50000000  0.28211617  0.85910334  1
  C  C145  1  0.50000000  0.34381328  0.19420273  1
  C  C146  1  0.50000000  0.34648187  0.52851942  1
  C  C147  1  0.50000000  0.34761620  0.86071476  1
  C  C148  1  0.50000000  0.40991984  0.19431941  1
  C  C149  1  0.50000000  0.41306451  0.52818690  1
  C  C150  1  0.50000000  0.41421578  0.86120158  1
  C  C151  1  0.50000000  0.47562920  0.19426866  1
  C  C152  1  0.50000000  0.47981029  0.52749113  1
  C  C153  1  0.50000000  0.48094154  0.86150735  1
  C  C154  1  0.50000000  0.54137746  0.19590498  1
  C  C155  1  0.50000000  0.54706564  0.52654198  1
  C  C156  1  0.50000000  0.54741190  0.86117052  1
  C  C157  1  0.50000000  0.61614733  0.53358861  1
  C  C158  1  0.50000000  0.61424165  0.86097387  1
  C  C159  1  0.50000000  0.71366611  0.19406017  1
  C  C160  1  0.50000000  0.68473693  0.53022423  1
  C  C161  1  0.50000000  0.68106493  0.85883324  1
  H  H162  1  0.50000000  0.77178423  0.20266065  1
  H  H163  1  0.50000000  0.74193749  0.54445694  1
  H  H164  1  0.50000000  0.73926100  0.86434335  1
  H  H165  1  0.50000000  0.77175261  0.29732456  1
  H  H166  1  0.50000000  0.73926394  0.63558903  1
  H  H167  1  0.50000000  0.74194202  0.95555119  1
  H  H168  1  0.50000000  0.25255146  0.28807494  1
  H  H169  1  0.50000000  0.25624078  0.62121473  1
  H  H170  1  0.50000000  0.25544214  0.95096299  1
  H  H171  1  0.50000000  0.25405162  0.04407284  1
  H  H172  1  0.50000000  0.25310628  0.38098321  1
  H  H173  1  0.50000000  0.25660145  0.71410074  1
  H  H174  1  0.50000000  0.75205968  0.02084195  1
  H  H175  1  0.50000000  0.76509068  0.38918746  1
  H  H176  1  0.50000000  0.73852003  0.70358450  1
  H  H177  1  0.50000000  0.76509732  0.11076516  1
  H  H178  1  0.50000000  0.75202158  0.47910190  1
  H  H179  1  0.50000000  0.73848627  0.79645439  1
  H  H180  1  0.50000000  0.25314784  0.11899246  1
  H  H181  1  0.50000000  0.25400017  0.45598612  1
  H  H182  1  0.50000000  0.25659270  0.78596382  1
  H  H183  1  0.50000000  0.25256201  0.21186379  1
  H  H184  1  0.50000000  0.25542853  0.54917198  1
  H  H185  1  0.50000000  0.25620935  0.87883453  1
  H  H186  1  0.50000000  0.59959810  0.20332538  1
  H  H187  1  0.50000000  0.65559200  0.20547134  1
  H  H188  1  0.50000000  0.59963046  0.29659011  1
  H  H189  1  0.50000000  0.65558110  0.29439336  1
  H  H190  1  0.50000000  0.61946343  0.00667328  1
  H  H191  1  0.50000000  0.60031215  0.04630630  1
  H  H192  1  0.50000000  0.59934548  0.36533077  1
  H  H193  1  0.50000000  0.63877164  0.05679016  1
  H  H194  1  0.50000000  0.65140539  0.35738042  1
  H  H195  1  0.50000000  0.59934347  0.13463739  1
  H  H196  1  0.50000000  0.60030543  0.45368965  1
  H  H197  1  0.50000000  0.65141753  0.14248867  1
  H  H198  1  0.50000000  0.63876616  0.44318785  1
  H  H199  1  0.50000000  0.61949702  0.49330079  1
