# generated using pymatgen
data_H7C45
_symmetry_space_group_name_H-M   'P 1'
_cell_length_a   10.00000000
_cell_length_b   41.10890000
_cell_length_c   25.85609872
_cell_angle_alpha   90.00000000
_cell_angle_beta   90.00000000
_cell_angle_gamma   90.00000000
_symmetry_Int_Tables_number   1
_chemical_formula_structural   H7C45
_chemical_formula_sum   'H28 C180'
_cell_volume   10629.15776772
_cell_formula_units_Z   4
loop_
 _symmetry_equiv_pos_site_id
 _symmetry_equiv_pos_as_xyz
  1  'x, y, z'
loop_
 _atom_site_type_symbol
 _atom_site_label
 _atom_site_symmetry_multiplicity
 _atom_site_fract_x
 _atom_site_fract_y
 _atom_site_fract_z
 _atom_site_occupancy
  C  C0  1  0.50000000  0.28905684  0.30555785  1
  C  C1  1  0.50000000  0.29002989  0.63898615  1
  C  C2  1  0.50000000  0.28976203  0.97162332  1
  C  C3  1  0.50000000  0.34904962  0.30581342  1
  C  C4  1  0.50000000  0.35022099  0.63915608  1
  C  C5  1  0.50000000  0.34993316  0.97211807  1
  C  C6  1  0.50000000  0.40881293  0.30576972  1
  C  C7  1  0.50000000  0.41027043  0.63901344  1
  C  C8  1  0.50000000  0.40992332  0.97206722  1
  C  C9  1  0.50000000  0.46859405  0.30572798  1
  C  C10  1  0.50000000  0.47060257  0.63880863  1
  C  C11  1  0.50000000  0.47015609  0.97206580  1
  C  C12  1  0.50000000  0.52808838  0.30577465  1
  C  C13  1  0.50000000  0.53101644  0.63854733  1
  C  C14  1  0.50000000  0.53055968  0.97250878  1
  C  C15  1  0.50000000  0.58765851  0.30408222  1
  C  C16  1  0.50000000  0.59105492  0.63899082  1
  C  C17  1  0.50000000  0.59117669  0.97325258  1
  C  C18  1  0.50000000  0.65133248  0.64003132  1
  C  C19  1  0.50000000  0.65262653  0.96604881  1
  C  C20  1  0.50000000  0.71247698  0.64016300  1
  C  C21  1  0.50000000  0.71179345  0.96850603  1
  C  C22  1  0.50000000  0.28957214  0.02756083  1
  C  C23  1  0.50000000  0.28913887  0.36156674  1
  C  C24  1  0.50000000  0.29013005  0.69490612  1
  C  C25  1  0.50000000  0.34966084  0.02738774  1
  C  C26  1  0.50000000  0.34919035  0.36117501  1
  C  C27  1  0.50000000  0.35034474  0.69444544  1
  C  C28  1  0.50000000  0.40955618  0.02758871  1
  C  C29  1  0.50000000  0.40899125  0.36133219  1
  C  C30  1  0.50000000  0.41037294  0.69449758  1
  C  C31  1  0.50000000  0.46961501  0.02767726  1
  C  C32  1  0.50000000  0.46881254  0.36130290  1
  C  C33  1  0.50000000  0.47063455  0.69454657  1
  C  C34  1  0.50000000  0.52969464  0.02779822  1
  C  C35  1  0.50000000  0.52833305  0.36091264  1
  C  C36  1  0.50000000  0.53092061  0.69428704  1
  C  C37  1  0.50000000  0.59001981  0.02920961  1
  C  C38  1  0.50000000  0.58746123  0.35897771  1
  C  C39  1  0.50000000  0.59096582  0.69440127  1
  C  C40  1  0.50000000  0.65115438  0.69519253  1
  C  C41  1  0.50000000  0.71199639  0.69574134  1
  C  C42  1  0.50000000  0.26018942  0.05616213  1
  C  C43  1  0.50000000  0.25992592  0.39052271  1
  C  C44  1  0.50000000  0.26079545  0.72351208  1
  C  C45  1  0.50000000  0.31943568  0.05524485  1
  C  C46  1  0.50000000  0.31913132  0.38916746  1
  C  C47  1  0.50000000  0.32015036  0.72233366  1
  C  C48  1  0.50000000  0.37953030  0.05526163  1
  C  C49  1  0.50000000  0.37918944  0.38911643  1
  C  C50  1  0.50000000  0.38038513  0.72217985  1
  C  C51  1  0.50000000  0.43948106  0.05550735  1
  C  C52  1  0.50000000  0.43903212  0.38923779  1
  C  C53  1  0.50000000  0.44060223  0.72227019  1
  C  C54  1  0.50000000  0.49938088  0.05544349  1
  C  C55  1  0.50000000  0.49871488  0.38908095  1
  C  C56  1  0.50000000  0.50076470  0.72222442  1
  C  C57  1  0.50000000  0.55947121  0.05602030  1
  C  C58  1  0.50000000  0.55844336  0.38828941  1
  C  C59  1  0.50000000  0.56087767  0.72213376  1
  C  C60  1  0.50000000  0.61775545  0.06204863  1
  C  C61  1  0.50000000  0.61689954  0.38554061  1
  C  C62  1  0.50000000  0.62111760  0.72220833  1
  C  C63  1  0.50000000  0.68162702  0.72242061  1
  C  C64  1  0.50000000  0.74132777  0.72338824  1
  C  C65  1  0.50000000  0.25995154  0.10945759  1
  C  C66  1  0.50000000  0.26014163  0.44382152  1
  C  C67  1  0.50000000  0.26081003  0.77673305  1
  C  C68  1  0.50000000  0.31916813  0.11086892  1
  C  C69  1  0.50000000  0.31938299  0.44480952  1
  C  C70  1  0.50000000  0.32016367  0.77780442  1
  C  C71  1  0.50000000  0.37920971  0.11092900  1
  C  C72  1  0.50000000  0.37947595  0.44478338  1
  C  C73  1  0.50000000  0.38039641  0.77791201  1
  C  C74  1  0.50000000  0.43904320  0.11084435  1
  C  C75  1  0.50000000  0.43944199  0.44455703  1
  C  C76  1  0.50000000  0.44060793  0.77776864  1
  C  C77  1  0.50000000  0.49870919  0.11093134  1
  C  C78  1  0.50000000  0.49933198  0.44452340  1
  C  C79  1  0.50000000  0.50076665  0.77780108  1
  C  C80  1  0.50000000  0.55843036  0.11170825  1
  C  C81  1  0.50000000  0.55943577  0.44396905  1
  C  C82  1  0.50000000  0.56088056  0.77784996  1
  C  C83  1  0.50000000  0.61687588  0.11446682  1
  C  C84  1  0.50000000  0.61772243  0.43795568  1
  C  C85  1  0.50000000  0.62112240  0.77768719  1
  C  C86  1  0.50000000  0.68162829  0.77746273  1
  C  C87  1  0.50000000  0.74132552  0.77646116  1
  C  C88  1  0.50000000  0.28916762  0.13842937  1
  C  C89  1  0.50000000  0.28950918  0.47248847  1
  C  C90  1  0.50000000  0.29016213  0.80527231  1
  C  C91  1  0.50000000  0.34921083  0.13888595  1
  C  C92  1  0.50000000  0.34960609  0.47267792  1
  C  C93  1  0.50000000  0.35036725  0.80565662  1
  C  C94  1  0.50000000  0.40899666  0.13873233  1
  C  C95  1  0.50000000  0.40950889  0.47245673  1
  C  C96  1  0.50000000  0.41038981  0.80555961  1
  C  C97  1  0.50000000  0.46881817  0.13878718  1
  C  C98  1  0.50000000  0.46958202  0.47235212  1
  C  C99  1  0.50000000  0.47063965  0.80548864  1
  C  C100  1  0.50000000  0.52832123  0.13910535  1
  C  C101  1  0.50000000  0.52963877  0.47216682  1
  C  C102  1  0.50000000  0.53092715  0.80572495  1
  C  C103  1  0.50000000  0.58743503  0.14102399  1
  C  C104  1  0.50000000  0.58997744  0.47076185  1
  C  C105  1  0.50000000  0.59098009  0.80554384  1
  C  C106  1  0.50000000  0.65115782  0.80470090  1
  C  C107  1  0.50000000  0.71199723  0.80411308  1
  C  C108  1  0.50000000  0.28907913  0.19443066  1
  C  C109  1  0.50000000  0.28970009  0.52844353  1
  C  C110  1  0.50000000  0.29007086  0.86117312  1
  C  C111  1  0.50000000  0.34905284  0.19424736  1
  C  C112  1  0.50000000  0.34988345  0.52795875  1
  C  C113  1  0.50000000  0.35025818  0.86093638  1
  C  C114  1  0.50000000  0.40880789  0.19428789  1
  C  C115  1  0.50000000  0.40988734  0.52797311  1
  C  C116  1  0.50000000  0.41029531  0.86104043  1
  C  C117  1  0.50000000  0.46859451  0.19436334  1
  C  C118  1  0.50000000  0.47012373  0.52797262  1
  C  C119  1  0.50000000  0.47061629  0.86123770  1
  C  C120  1  0.50000000  0.52808470  0.19425147  1
  C  C121  1  0.50000000  0.53048908  0.52747907  1
  C  C122  1  0.50000000  0.53103102  0.86146467  1
  C  C123  1  0.50000000  0.58762405  0.19591001  1
  C  C124  1  0.50000000  0.59119317  0.52671021  1
  C  C125  1  0.50000000  0.59107275  0.86095693  1
  C  C126  1  0.50000000  0.65260077  0.53383237  1
  C  C127  1  0.50000000  0.65133826  0.85986077  1
  C  C128  1  0.50000000  0.71175493  0.53124829  1
  C  C129  1  0.50000000  0.71247165  0.85967699  1
  C  C130  1  0.50000000  0.25980008  0.22329446  1
  C  C131  1  0.50000000  0.26045782  0.55725547  1
  C  C132  1  0.50000000  0.26066026  0.88962587  1
  C  C133  1  0.50000000  0.31896239  0.22220015  1
  C  C134  1  0.50000000  0.31976458  0.55589071  1
  C  C135  1  0.50000000  0.32000186  0.88871198  1
  C  C136  1  0.50000000  0.37893117  0.22217586  1
  C  C137  1  0.50000000  0.37998930  0.55569639  1
  C  C138  1  0.50000000  0.38021954  0.88873080  1
  C  C139  1  0.50000000  0.43870073  0.22232538  1
  C  C140  1  0.50000000  0.44014724  0.55580201  1
  C  C141  1  0.50000000  0.44041859  0.88890291  1
  C  C142  1  0.50000000  0.49828963  0.22224003  1
  C  C143  1  0.50000000  0.50040414  0.55555054  1
  C  C144  1  0.50000000  0.50060945  0.88900218  1
  C  C145  1  0.50000000  0.55775827  0.22255106  1
  C  C146  1  0.50000000  0.56121365  0.55465530  1
  C  C147  1  0.50000000  0.56101402  0.88921687  1
  C  C148  1  0.50000000  0.61727696  0.22357223  1
  C  C149  1  0.50000000  0.62178019  0.55603914  1
  C  C150  1  0.50000000  0.62133150  0.88801943  1
  C  C151  1  0.50000000  0.68232438  0.55976114  1
  C  C152  1  0.50000000  0.68210022  0.88563824  1
  C  C153  1  0.50000000  0.74120925  0.55717600  1
  C  C154  1  0.50000000  0.74146966  0.88845664  1
  C  C155  1  0.50000000  0.25978924  0.27663152  1
  C  C156  1  0.50000000  0.26063427  0.61050233  1
  C  C157  1  0.50000000  0.26049558  0.94287779  1
  C  C158  1  0.50000000  0.31895970  0.27784682  1
  C  C159  1  0.50000000  0.31995301  0.61139443  1
  C  C160  1  0.50000000  0.31982320  0.94419260  1
  C  C161  1  0.50000000  0.37893483  0.27788693  1
  C  C162  1  0.50000000  0.38018626  0.61134099  1
  C  C163  1  0.50000000  0.38002355  0.94436791  1
  C  C164  1  0.50000000  0.43870998  0.27775379  1
  C  C165  1  0.50000000  0.44039866  0.61116135  1
  C  C166  1  0.50000000  0.44017615  0.94424637  1
  C  C167  1  0.50000000  0.49828214  0.27780500  1
  C  C168  1  0.50000000  0.50058629  0.61102950  1
  C  C169  1  0.50000000  0.50044337  0.94448231  1
  C  C170  1  0.50000000  0.55777081  0.27747391  1
  C  C171  1  0.50000000  0.56099467  0.61077017  1
  C  C172  1  0.50000000  0.56122570  0.94532949  1
  C  C173  1  0.50000000  0.61730262  0.27634329  1
  C  C174  1  0.50000000  0.62131184  0.61190780  1
  C  C175  1  0.50000000  0.62179673  0.94388937  1
  C  C176  1  0.50000000  0.68209304  0.61421667  1
  C  C177  1  0.50000000  0.68234221  0.94008033  1
  C  C178  1  0.50000000  0.74145773  0.61131578  1
  C  C179  1  0.50000000  0.74124444  0.94259794  1
  H  H180  1  0.50000000  0.23682633  0.03602672  1
  H  H181  1  0.50000000  0.23643244  0.37073124  1
  H  H182  1  0.50000000  0.23733813  0.70363976  1
  H  H183  1  0.50000000  0.76454414  0.70291154  1
  H  H184  1  0.50000000  0.23641967  0.12915089  1
  H  H185  1  0.50000000  0.23674511  0.46383666  1
  H  H186  1  0.50000000  0.23738349  0.79671806  1
  H  H187  1  0.50000000  0.76454629  0.79691000  1
  H  H188  1  0.50000000  0.23636498  0.20333773  1
  H  H189  1  0.50000000  0.23695203  0.53750404  1
  H  H190  1  0.50000000  0.23729436  0.86946851  1
  H  H191  1  0.50000000  0.76426136  0.53596435  1
  H  H192  1  0.50000000  0.76492318  0.86858792  1
  H  H193  1  0.50000000  0.23631628  0.29645232  1
  H  H194  1  0.50000000  0.23721743  0.63047554  1
  H  H195  1  0.50000000  0.23704092  0.96280653  1
  H  H196  1  0.50000000  0.76497836  0.63099080  1
  H  H197  1  0.50000000  0.76422458  0.96400351  1
  H  H198  1  0.50000000  0.65704879  0.00649680  1
  H  H199  1  0.50000000  0.71077201  0.01088126  1
  H  H200  1  0.50000000  0.64236127  0.04935591  1
  H  H201  1  0.50000000  0.64008425  0.36518285  1
  H  H202  1  0.50000000  0.64007164  0.13480565  1
  H  H203  1  0.50000000  0.64226585  0.45088994  1
  H  H204  1  0.50000000  0.65705164  0.49337356  1
  H  H205  1  0.50000000  0.71067105  0.48884308  1
  H  H206  1  0.50000000  0.64054392  0.20341554  1
  H  H207  1  0.50000000  0.64061652  0.29637339  1
