# generated using pymatgen
data_H2C9
_symmetry_space_group_name_H-M   'P 1'
_cell_length_a   20.00000000
_cell_length_b   37.22700000
_cell_length_c   25.76383926
_cell_angle_alpha   90.00000000
_cell_angle_beta   90.00000000
_cell_angle_gamma   90.00000000
_symmetry_Int_Tables_number   1
_chemical_formula_structural   H2C9
_chemical_formula_sum   'H36 C162'
_cell_volume   19182.20887982
_cell_formula_units_Z   18
loop_
 _symmetry_equiv_pos_site_id
 _symmetry_equiv_pos_as_xyz
  1  'x, y, z'
loop_
 _atom_site_type_symbol
 _atom_site_label
 _atom_site_symmetry_multiplicity
 _atom_site_fract_x
 _atom_site_fract_y
 _atom_site_fract_z
 _atom_site_occupancy
  C  C0  1  0.50000000  0.31134341  0.22177594  1
  C  C1  1  0.50000000  0.31397879  0.55653689  1
  C  C2  1  0.50000000  0.31459531  0.88762880  1
  C  C3  1  0.50000000  0.37763373  0.22223008  1
  C  C4  1  0.50000000  0.38051647  0.55634641  1
  C  C5  1  0.50000000  0.38119214  0.88839934  1
  C  C6  1  0.50000000  0.44332207  0.22226290  1
  C  C7  1  0.50000000  0.44705001  0.55603095  1
  C  C8  1  0.50000000  0.44777895  0.88854529  1
  C  C9  1  0.50000000  0.50920510  0.22207272  1
  C  C10  1  0.50000000  0.51431178  0.55491037  1
  C  C11  1  0.50000000  0.51481748  0.88949869  1
  C  C12  1  0.50000000  0.58293608  0.55167285  1
  C  C13  1  0.50000000  0.58218588  0.89225546  1
  C  C14  1  0.50000000  0.66931268  0.22206727  1
  C  C15  1  0.50000000  0.65135455  0.55544157  1
  C  C16  1  0.50000000  0.64922768  0.88894732  1
  C  C17  1  0.50000000  0.73396386  0.22302919  1
  C  C18  1  0.50000000  0.71754167  0.56243768  1
  C  C19  1  0.50000000  0.71533044  0.88492950  1
  C  C20  1  0.50000000  0.31134759  0.27822383  1
  C  C21  1  0.50000000  0.31461308  0.61234414  1
  C  C22  1  0.50000000  0.31396627  0.94344900  1
  C  C23  1  0.50000000  0.37763756  0.27777940  1
  C  C24  1  0.50000000  0.38118939  0.61158152  1
  C  C25  1  0.50000000  0.38051867  0.94363674  1
  C  C26  1  0.50000000  0.44332498  0.27774697  1
  C  C27  1  0.50000000  0.44776475  0.61144884  1
  C  C28  1  0.50000000  0.44705940  0.94396645  1
  C  C29  1  0.50000000  0.50920772  0.27793579  1
  C  C30  1  0.50000000  0.51479414  0.61050537  1
  C  C31  1  0.50000000  0.51432893  0.94509771  1
  C  C32  1  0.50000000  0.58216006  0.60772409  1
  C  C33  1  0.50000000  0.58295076  0.94831079  1
  C  C34  1  0.50000000  0.66931863  0.27802190  1
  C  C35  1  0.50000000  0.64919614  0.61101405  1
  C  C36  1  0.50000000  0.65135614  0.94452956  1
  C  C37  1  0.50000000  0.73396592  0.27704485  1
  C  C38  1  0.50000000  0.71528756  0.61504504  1
  C  C39  1  0.50000000  0.71754064  0.93755721  1
  C  C40  1  0.50000000  0.27913392  0.30745376  1
  C  C41  1  0.50000000  0.28231519  0.64098098  1
  C  C42  1  0.50000000  0.28120945  0.97131523  1
  C  C43  1  0.50000000  0.34443635  0.30591504  1
  C  C44  1  0.50000000  0.34792516  0.63942206  1
  C  C45  1  0.50000000  0.34683170  0.97124264  1
  C  C46  1  0.50000000  0.41059716  0.30568803  1
  C  C47  1  0.50000000  0.41461981  0.63916258  1
  C  C48  1  0.50000000  0.41353002  0.97143163  1
  C  C49  1  0.50000000  0.47648786  0.30568112  1
  C  C50  1  0.50000000  0.48146309  0.63884242  1
  C  C51  1  0.50000000  0.48027816  0.97204459  1
  C  C52  1  0.50000000  0.54142335  0.30601770  1
  C  C53  1  0.50000000  0.54855049  0.63712970  1
  C  C54  1  0.50000000  0.54767721  0.97407767  1
  C  C55  1  0.50000000  0.63615802  0.30450078  1
  C  C56  1  0.50000000  0.61512452  0.63761027  1
  C  C57  1  0.50000000  0.61888257  0.97571395  1
  C  C58  1  0.50000000  0.70157395  0.30736000  1
  C  C59  1  0.50000000  0.68156691  0.64030790  1
  C  C60  1  0.50000000  0.68631619  0.96873299  1
  C  C61  1  0.50000000  0.28047894  0.02473150  1
  C  C62  1  0.50000000  0.27938657  0.36105676  1
  C  C63  1  0.50000000  0.28260344  0.69417856  1
  C  C64  1  0.50000000  0.34589398  0.02680928  1
  C  C65  1  0.50000000  0.34479399  0.36176614  1
  C  C66  1  0.50000000  0.34827925  0.69478532  1
  C  C67  1  0.50000000  0.41225169  0.02717754  1
  C  C68  1  0.50000000  0.41104040  0.36172282  1
  C  C69  1  0.50000000  0.41499091  0.69475959  1
  C  C70  1  0.50000000  0.47828715  0.02730784  1
  C  C71  1  0.50000000  0.47690275  0.36115466  1
  C  C72  1  0.50000000  0.48174093  0.69434335  1
  C  C73  1  0.50000000  0.54335217  0.02834450  1
  C  C74  1  0.50000000  0.54153793  0.35926645  1
  C  C75  1  0.50000000  0.54834860  0.69337532  1
  C  C76  1  0.50000000  0.62593474  0.02977896  1
  C  C77  1  0.50000000  0.63406482  0.35722157  1
  C  C78  1  0.50000000  0.61444630  0.69324019  1
  C  C79  1  0.50000000  0.69136321  0.02392060  1
  C  C80  1  0.50000000  0.69909899  0.36414667  1
  C  C81  1  0.50000000  0.68066785  0.69549955  1
  C  C82  1  0.50000000  0.31255222  0.05406498  1
  C  C83  1  0.50000000  0.31189809  0.38966532  1
  C  C84  1  0.50000000  0.31520351  0.72215941  1
  C  C85  1  0.50000000  0.37894188  0.05488374  1
  C  C86  1  0.50000000  0.37820075  0.38970189  1
  C  C87  1  0.50000000  0.38175679  0.72242329  1
  C  C88  1  0.50000000  0.44490808  0.05508296  1
  C  C89  1  0.50000000  0.44399519  0.38936033  1
  C  C90  1  0.50000000  0.44834838  0.72224511  1
  C  C91  1  0.50000000  0.51093491  0.05525484  1
  C  C92  1  0.50000000  0.50989119  0.38838587  1
  C  C93  1  0.50000000  0.51519217  0.72196444  1
  C  C94  1  0.50000000  0.58132113  0.72204364  1
  C  C95  1  0.50000000  0.66016520  0.05472496  1
  C  C96  1  0.50000000  0.66468289  0.38900804  1
  C  C97  1  0.50000000  0.64735710  0.72215435  1
  C  C98  1  0.50000000  0.72565262  0.04902908  1
  C  C99  1  0.50000000  0.72955027  0.39775143  1
  C  C100  1  0.50000000  0.71333200  0.72359680  1
  C  C101  1  0.50000000  0.31191060  0.11032432  1
  C  C102  1  0.50000000  0.31253291  0.44592336  1
  C  C103  1  0.50000000  0.31521271  0.77778544  1
  C  C104  1  0.50000000  0.37820400  0.11029458  1
  C  C105  1  0.50000000  0.37893403  0.44510707  1
  C  C106  1  0.50000000  0.38175837  0.77756262  1
  C  C107  1  0.50000000  0.44399060  0.11064691  1
  C  C108  1  0.50000000  0.44490721  0.44492326  1
  C  C109  1  0.50000000  0.44835307  0.77776824  1
  C  C110  1  0.50000000  0.50988425  0.11162574  1
  C  C111  1  0.50000000  0.51093387  0.44475145  1
  C  C112  1  0.50000000  0.51520213  0.77803259  1
  C  C113  1  0.50000000  0.58133358  0.77793531  1
  C  C114  1  0.50000000  0.66464446  0.11103412  1
  C  C115  1  0.50000000  0.66020436  0.44529830  1
  C  C116  1  0.50000000  0.64737351  0.77781085  1
  C  C117  1  0.50000000  0.72950807  0.10226899  1
  C  C118  1  0.50000000  0.72570420  0.45099061  1
  C  C119  1  0.50000000  0.71335319  0.77632597  1
  C  C120  1  0.50000000  0.27939863  0.13893335  1
  C  C121  1  0.50000000  0.28046623  0.47528560  1
  C  C122  1  0.50000000  0.28261186  0.80575224  1
  C  C123  1  0.50000000  0.34479939  0.13823227  1
  C  C124  1  0.50000000  0.34588084  0.47317160  1
  C  C125  1  0.50000000  0.34828119  0.80518496  1
  C  C126  1  0.50000000  0.41103877  0.13828166  1
  C  C127  1  0.50000000  0.41224525  0.47281084  1
  C  C128  1  0.50000000  0.41499840  0.80523562  1
  C  C129  1  0.50000000  0.47689749  0.13885459  1
  C  C130  1  0.50000000  0.47828773  0.47269306  1
  C  C131  1  0.50000000  0.48175408  0.80566246  1
  C  C132  1  0.50000000  0.54153193  0.14074018  1
  C  C133  1  0.50000000  0.54335017  0.47167106  1
  C  C134  1  0.50000000  0.54836163  0.80660804  1
  C  C135  1  0.50000000  0.63404402  0.14286619  1
  C  C136  1  0.50000000  0.62596460  0.47021980  1
  C  C137  1  0.50000000  0.61446682  0.80672838  1
  C  C138  1  0.50000000  0.69906913  0.13590259  1
  C  C139  1  0.50000000  0.69140461  0.47608194  1
  C  C140  1  0.50000000  0.68069961  0.80445496  1
  C  C141  1  0.50000000  0.27913237  0.19253481  1
  C  C142  1  0.50000000  0.28122142  0.52868765  1
  C  C143  1  0.50000000  0.28230823  0.85895416  1
  C  C144  1  0.50000000  0.34443563  0.19408757  1
  C  C145  1  0.50000000  0.34683445  0.52873655  1
  C  C146  1  0.50000000  0.34791943  0.86055350  1
  C  C147  1  0.50000000  0.41059270  0.19432210  1
  C  C148  1  0.50000000  0.41352659  0.52855867  1
  C  C149  1  0.50000000  0.41462736  0.86083510  1
  C  C150  1  0.50000000  0.47648265  0.19433149  1
  C  C151  1  0.50000000  0.48026737  0.52795634  1
  C  C152  1  0.50000000  0.48148203  0.86117614  1
  C  C153  1  0.50000000  0.54142523  0.19400173  1
  C  C154  1  0.50000000  0.54765647  0.52593716  1
  C  C155  1  0.50000000  0.54857278  0.86285939  1
  C  C156  1  0.50000000  0.63615360  0.19558494  1
  C  C157  1  0.50000000  0.61887913  0.52426752  1
  C  C158  1  0.50000000  0.61515319  0.86236038  1
  C  C159  1  0.50000000  0.70156466  0.19270654  1
  C  C160  1  0.50000000  0.68632907  0.53125139  1
  C  C161  1  0.50000000  0.68160764  0.85965434  1
  H  H162  1  0.50000000  0.76011662  0.20344954  1
  H  H163  1  0.50000000  0.74404656  0.54442071  1
  H  H164  1  0.50000000  0.74020201  0.86273718  1
  H  H165  1  0.50000000  0.76010447  0.29666848  1
  H  H166  1  0.50000000  0.74014341  0.63725463  1
  H  H167  1  0.50000000  0.74402053  0.95563839  1
  H  H168  1  0.50000000  0.25315447  0.28764058  1
  H  H169  1  0.50000000  0.25642695  0.62115798  1
  H  H170  1  0.50000000  0.25565611  0.95048143  1
  H  H171  1  0.50000000  0.25440953  0.04425744  1
  H  H172  1  0.50000000  0.25357446  0.38133418  1
  H  H173  1  0.50000000  0.25688721  0.71446685  1
  H  H174  1  0.50000000  0.75021383  0.02581164  1
  H  H175  1  0.50000000  0.75674443  0.38149978  1
  H  H176  1  0.50000000  0.73920869  0.70385218  1
  H  H177  1  0.50000000  0.75672212  0.11845194  1
  H  H178  1  0.50000000  0.75025988  0.47422110  1
  H  H179  1  0.50000000  0.73925630  0.79600798  1
  H  H180  1  0.50000000  0.25357435  0.11869234  1
  H  H181  1  0.50000000  0.25435408  0.45587996  1
  H  H182  1  0.50000000  0.25692055  0.78540955  1
  H  H183  1  0.50000000  0.25312515  0.21227738  1
  H  H184  1  0.50000000  0.25567477  0.54953690  1
  H  H185  1  0.50000000  0.25639457  0.87871647  1
  H  H186  1  0.50000000  0.56684315  0.28555774  1
  H  H187  1  0.50000000  0.61144801  0.28251605  1
  H  H188  1  0.50000000  0.56687680  0.05214219  1
  H  H189  1  0.50000000  0.56697228  0.37939022  1
  H  H190  1  0.50000000  0.60413217  0.05703420  1
  H  H191  1  0.50000000  0.60795767  0.37531663  1
  H  H192  1  0.50000000  0.56694063  0.12055457  1
  H  H193  1  0.50000000  0.56690312  0.44794582  1
  H  H194  1  0.50000000  0.60788537  0.12493289  1
  H  H195  1  0.50000000  0.60418550  0.44293023  1
  H  H196  1  0.50000000  0.56682774  0.21450390  1
  H  H197  1  0.50000000  0.61139984  0.21747238  1
