# generated using pymatgen
data_H2C9
_symmetry_space_group_name_H-M   'P 1'
_cell_length_a   10.00000000
_cell_length_b   41.10890000
_cell_length_c   25.91369867
_cell_angle_alpha   90.00000000
_cell_angle_beta   90.00000000
_cell_angle_gamma   90.00000000
_symmetry_Int_Tables_number   1
_chemical_formula_structural   H2C9
_chemical_formula_sum   'H40 C180'
_cell_volume   10652.83647295
_cell_formula_units_Z   20
loop_
 _symmetry_equiv_pos_site_id
 _symmetry_equiv_pos_as_xyz
  1  'x, y, z'
loop_
 _atom_site_type_symbol
 _atom_site_label
 _atom_site_symmetry_multiplicity
 _atom_site_fract_x
 _atom_site_fract_y
 _atom_site_fract_z
 _atom_site_occupancy
  C  C0  1  0.50000000  0.28948216  0.30518808  1
  C  C1  1  0.50000000  0.28810343  0.63844626  1
  C  C2  1  0.50000000  0.28851213  0.97235507  1
  C  C3  1  0.50000000  0.34962255  0.30556313  1
  C  C4  1  0.50000000  0.34823756  0.63902155  1
  C  C5  1  0.50000000  0.34858364  0.97215658  1
  C  C6  1  0.50000000  0.40957122  0.30580672  1
  C  C7  1  0.50000000  0.40818606  0.63925445  1
  C  C8  1  0.50000000  0.40846689  0.97175158  1
  C  C9  1  0.50000000  0.46866972  0.30716816  1
  C  C10  1  0.50000000  0.46815781  0.63968661  1
  C  C11  1  0.50000000  0.46827713  0.97120307  1
  C  C12  1  0.50000000  0.52820555  0.64089201  1
  C  C13  1  0.50000000  0.52879397  0.96745206  1
  C  C14  1  0.50000000  0.58898744  0.64015309  1
  C  C15  1  0.50000000  0.58783009  0.96644463  1
  C  C16  1  0.50000000  0.65736609  0.30414917  1
  C  C17  1  0.50000000  0.64881389  0.63907021  1
  C  C18  1  0.50000000  0.64956666  0.97384738  1
  C  C19  1  0.50000000  0.71731364  0.30640324  1
  C  C20  1  0.50000000  0.70867365  0.63907435  1
  C  C21  1  0.50000000  0.71027871  0.97097480  1
  C  C22  1  0.50000000  0.28878879  0.02833915  1
  C  C23  1  0.50000000  0.28930746  0.36112091  1
  C  C24  1  0.50000000  0.28799547  0.69451946  1
  C  C25  1  0.50000000  0.34887549  0.02766715  1
  C  C26  1  0.50000000  0.34944275  0.36115162  1
  C  C27  1  0.50000000  0.34811849  0.69441919  1
  C  C28  1  0.50000000  0.40865626  0.02712950  1
  C  C29  1  0.50000000  0.40940028  0.36141066  1
  C  C30  1  0.50000000  0.40805881  0.69459272  1
  C  C31  1  0.50000000  0.46767749  0.02535119  1
  C  C32  1  0.50000000  0.46852174  0.36064264  1
  C  C33  1  0.50000000  0.46805685  0.69484597  1
  C  C34  1  0.50000000  0.52826003  0.69575343  1
  C  C35  1  0.50000000  0.58890081  0.69518487  1
  C  C36  1  0.50000000  0.65198184  0.02944577  1
  C  C37  1  0.50000000  0.65667851  0.35864838  1
  C  C38  1  0.50000000  0.64876638  0.69427424  1
  C  C39  1  0.50000000  0.71229198  0.02630924  1
  C  C40  1  0.50000000  0.71622257  0.36232627  1
  C  C41  1  0.50000000  0.70863959  0.69480928  1
  C  C42  1  0.50000000  0.25971021  0.05730274  1
  C  C43  1  0.50000000  0.25997050  0.38942850  1
  C  C44  1  0.50000000  0.25876297  0.72330208  1
  C  C45  1  0.50000000  0.31888169  0.05573505  1
  C  C46  1  0.50000000  0.31918772  0.38882106  1
  C  C47  1  0.50000000  0.31798112  0.72221465  1
  C  C48  1  0.50000000  0.37882462  0.05525355  1
  C  C49  1  0.50000000  0.37913544  0.38910484  1
  C  C50  1  0.50000000  0.37802534  0.72220795  1
  C  C51  1  0.50000000  0.43897596  0.05429653  1
  C  C52  1  0.50000000  0.43932501  0.38932348  1
  C  C53  1  0.50000000  0.43805495  0.72234870  1
  C  C54  1  0.50000000  0.49808651  0.72257810  1
  C  C55  1  0.50000000  0.55858513  0.72253382  1
  C  C56  1  0.50000000  0.62472460  0.06331340  1
  C  C57  1  0.50000000  0.62667924  0.38444061  1
  C  C58  1  0.50000000  0.61887985  0.72236387  1
  C  C59  1  0.50000000  0.68316757  0.05557676  1
  C  C60  1  0.50000000  0.68551479  0.38871298  1
  C  C61  1  0.50000000  0.67874380  0.72230830  1
  C  C62  1  0.50000000  0.74253391  0.05326581  1
  C  C63  1  0.50000000  0.74456078  0.39367404  1
  C  C64  1  0.50000000  0.73796819  0.72342377  1
  C  C65  1  0.50000000  0.25996161  0.11058363  1
  C  C66  1  0.50000000  0.25969703  0.44271026  1
  C  C67  1  0.50000000  0.25875142  0.77666419  1
  C  C68  1  0.50000000  0.31918087  0.11120582  1
  C  C69  1  0.50000000  0.31887709  0.44428833  1
  C  C70  1  0.50000000  0.31797501  0.77777201  1
  C  C71  1  0.50000000  0.37913626  0.11091774  1
  C  C72  1  0.50000000  0.37882282  0.44478459  1
  C  C73  1  0.50000000  0.37802556  0.77778141  1
  C  C74  1  0.50000000  0.43933474  0.11068061  1
  C  C75  1  0.50000000  0.43896869  0.44570308  1
  C  C76  1  0.50000000  0.43805381  0.77765782  1
  C  C77  1  0.50000000  0.49808506  0.77741935  1
  C  C78  1  0.50000000  0.55858338  0.77746313  1
  C  C79  1  0.50000000  0.62668412  0.11556426  1
  C  C80  1  0.50000000  0.62471680  0.43668824  1
  C  C81  1  0.50000000  0.61888293  0.77763786  1
  C  C82  1  0.50000000  0.68551398  0.11129729  1
  C  C83  1  0.50000000  0.68316485  0.44442682  1
  C  C84  1  0.50000000  0.67875283  0.77768015  1
  C  C85  1  0.50000000  0.74455528  0.10634254  1
  C  C86  1  0.50000000  0.74253209  0.44674393  1
  C  C87  1  0.50000000  0.73798694  0.77652031  1
  C  C88  1  0.50000000  0.28929408  0.13890203  1
  C  C89  1  0.50000000  0.28877709  0.47166449  1
  C  C90  1  0.50000000  0.28798024  0.80545550  1
  C  C91  1  0.50000000  0.34944295  0.13887889  1
  C  C92  1  0.50000000  0.34886187  0.47238885  1
  C  C93  1  0.50000000  0.34811546  0.80556809  1
  C  C94  1  0.50000000  0.40941536  0.13861554  1
  C  C95  1  0.50000000  0.40865884  0.47288347  1
  C  C96  1  0.50000000  0.40805538  0.80540892  1
  C  C97  1  0.50000000  0.46852833  0.13935983  1
  C  C98  1  0.50000000  0.46766515  0.47464572  1
  C  C99  1  0.50000000  0.46805675  0.80514860  1
  C  C100  1  0.50000000  0.52825725  0.80424839  1
  C  C101  1  0.50000000  0.58890044  0.80480832  1
  C  C102  1  0.50000000  0.65667940  0.14136634  1
  C  C103  1  0.50000000  0.65197482  0.47054293  1
  C  C104  1  0.50000000  0.64877026  0.80571880  1
  C  C105  1  0.50000000  0.71621781  0.13768923  1
  C  C106  1  0.50000000  0.71228865  0.47368431  1
  C  C107  1  0.50000000  0.70865640  0.80515511  1
  C  C108  1  0.50000000  0.28946911  0.19484003  1
  C  C109  1  0.50000000  0.28851597  0.52764377  1
  C  C110  1  0.50000000  0.28808242  0.86152810  1
  C  C111  1  0.50000000  0.34962302  0.19446510  1
  C  C112  1  0.50000000  0.34859653  0.52783993  1
  C  C113  1  0.50000000  0.34822596  0.86096520  1
  C  C114  1  0.50000000  0.40958757  0.19422248  1
  C  C115  1  0.50000000  0.40847180  0.52825314  1
  C  C116  1  0.50000000  0.40817491  0.86074568  1
  C  C117  1  0.50000000  0.46867767  0.19283322  1
  C  C118  1  0.50000000  0.46827610  0.52879423  1
  C  C119  1  0.50000000  0.46815650  0.86030351  1
  C  C120  1  0.50000000  0.52878978  0.53253233  1
  C  C121  1  0.50000000  0.52820563  0.85911070  1
  C  C122  1  0.50000000  0.58781084  0.53352703  1
  C  C123  1  0.50000000  0.58898674  0.85983474  1
  C  C124  1  0.50000000  0.65736103  0.19587015  1
  C  C125  1  0.50000000  0.64955031  0.52612775  1
  C  C126  1  0.50000000  0.64881117  0.86092230  1
  C  C127  1  0.50000000  0.71730814  0.19361445  1
  C  C128  1  0.50000000  0.71026565  0.52900783  1
  C  C129  1  0.50000000  0.70867834  0.86087966  1
  C  C130  1  0.50000000  0.26028040  0.22338814  1
  C  C131  1  0.50000000  0.25919175  0.55608401  1
  C  C132  1  0.50000000  0.25897705  0.89058354  1
  C  C133  1  0.50000000  0.31952466  0.22230365  1
  C  C134  1  0.50000000  0.31838883  0.55545948  1
  C  C135  1  0.50000000  0.31817704  0.88900255  1
  C  C136  1  0.50000000  0.37950020  0.22216538  1
  C  C137  1  0.50000000  0.37833768  0.55583129  1
  C  C138  1  0.50000000  0.37819326  0.88863068  1
  C  C139  1  0.50000000  0.43962900  0.22187884  1
  C  C140  1  0.50000000  0.43832426  0.55640778  1
  C  C141  1  0.50000000  0.43820682  0.88818569  1
  C  C142  1  0.50000000  0.49878001  0.55728084  1
  C  C143  1  0.50000000  0.49836620  0.88729575  1
  C  C144  1  0.50000000  0.55820964  0.56021568  1
  C  C145  1  0.50000000  0.55838396  0.88537914  1
  C  C146  1  0.50000000  0.62773556  0.22380367  1
  C  C147  1  0.50000000  0.61867724  0.55550195  1
  C  C148  1  0.50000000  0.61892109  0.88835362  1
  C  C149  1  0.50000000  0.68764973  0.22236249  1
  C  C150  1  0.50000000  0.67937729  0.55511914  1
  C  C151  1  0.50000000  0.67903311  0.88893904  1
  C  C152  1  0.50000000  0.74657630  0.22325697  1
  C  C153  1  0.50000000  0.73920274  0.55880813  1
  C  C154  1  0.50000000  0.73849721  0.88839630  1
  C  C155  1  0.50000000  0.26028157  0.27667135  1
  C  C156  1  0.50000000  0.25898704  0.60941210  1
  C  C157  1  0.50000000  0.25918909  0.94391747  1
  C  C158  1  0.50000000  0.31952945  0.27772146  1
  C  C159  1  0.50000000  0.31819404  0.61097171  1
  C  C160  1  0.50000000  0.31836980  0.94450725  1
  C  C161  1  0.50000000  0.37949375  0.27785711  1
  C  C162  1  0.50000000  0.37820930  0.61136548  1
  C  C163  1  0.50000000  0.37832730  0.94416964  1
  C  C164  1  0.50000000  0.43961568  0.27814449  1
  C  C165  1  0.50000000  0.43821125  0.61180488  1
  C  C166  1  0.50000000  0.43832020  0.94359016  1
  C  C167  1  0.50000000  0.49836930  0.61269983  1
  C  C168  1  0.50000000  0.49877934  0.94271194  1
  C  C169  1  0.50000000  0.55838130  0.61461282  1
  C  C170  1  0.50000000  0.55822217  0.93977560  1
  C  C171  1  0.50000000  0.62774101  0.27621895  1
  C  C172  1  0.50000000  0.61891931  0.61163229  1
  C  C173  1  0.50000000  0.61869330  0.94447482  1
  C  C174  1  0.50000000  0.68765383  0.27765746  1
  C  C175  1  0.50000000  0.67902426  0.61103411  1
  C  C176  1  0.50000000  0.67939005  0.94485242  1
  C  C177  1  0.50000000  0.74658113  0.27676180  1
  C  C178  1  0.50000000  0.73850049  0.61157361  1
  C  C179  1  0.50000000  0.73921077  0.94116608  1
  H  H180  1  0.50000000  0.23618449  0.03769178  1
  H  H181  1  0.50000000  0.23663270  0.36924387  1
  H  H182  1  0.50000000  0.23534329  0.70330507  1
  H  H183  1  0.50000000  0.76524312  0.03138694  1
  H  H184  1  0.50000000  0.76869618  0.37587437  1
  H  H185  1  0.50000000  0.76139283  0.70356368  1
  H  H186  1  0.50000000  0.23662024  0.13076410  1
  H  H187  1  0.50000000  0.23616745  0.46232488  1
  H  H188  1  0.50000000  0.23533153  0.79667337  1
  H  H189  1  0.50000000  0.76867790  0.12419240  1
  H  H190  1  0.50000000  0.76522968  0.46864776  1
  H  H191  1  0.50000000  0.76142131  0.79634889  1
  H  H192  1  0.50000000  0.23686892  0.20343214  1
  H  H193  1  0.50000000  0.23585865  0.53586360  1
  H  H194  1  0.50000000  0.23544863  0.87094745  1
  H  H195  1  0.50000000  0.77009198  0.20338414  1
  H  H196  1  0.50000000  0.76291649  0.53979341  1
  H  H197  1  0.50000000  0.76158218  0.86765141  1
  H  H198  1  0.50000000  0.23687006  0.29663747  1
  H  H199  1  0.50000000  0.23545665  0.62904602  1
  H  H200  1  0.50000000  0.23585135  0.96412131  1
  H  H201  1  0.50000000  0.77009670  0.29663874  1
  H  H202  1  0.50000000  0.76159382  0.63229397  1
  H  H203  1  0.50000000  0.76293590  0.96015165  1
  H  H204  1  0.50000000  0.49223889  0.28761759  1
  H  H205  1  0.50000000  0.53047290  0.00962104  1
  H  H206  1  0.50000000  0.58354012  0.00707909  1
  H  H207  1  0.50000000  0.49082750  0.04581339  1
  H  H208  1  0.50000000  0.49205335  0.38036548  1
  H  H209  1  0.50000000  0.60006863  0.05038680  1
  H  H210  1  0.50000000  0.60383995  0.36312923  1
  H  H211  1  0.50000000  0.60384543  0.13688091  1
  H  H212  1  0.50000000  0.60006460  0.44962815  1
  H  H213  1  0.50000000  0.49205653  0.11963208  1
  H  H214  1  0.50000000  0.49080414  0.45416798  1
  H  H215  1  0.50000000  0.49223964  0.21239203  1
  H  H216  1  0.50000000  0.53046653  0.49036277  1
  H  H217  1  0.50000000  0.58350419  0.49288875  1
  H  H218  1  0.50000000  0.60435134  0.20401452  1
  H  H219  1  0.50000000  0.60436710  0.29603769  1
