# generated using pymatgen
data_H19C93
_symmetry_space_group_name_H-M   'P 1'
_cell_length_a   10.00000000
_cell_length_b   41.10890000
_cell_length_c   25.81251041
_cell_angle_alpha   90.00000000
_cell_angle_beta   90.00000000
_cell_angle_gamma   90.00000000
_symmetry_Int_Tables_number   1
_chemical_formula_structural   H19C93
_chemical_formula_sum   'H38 C186'
_cell_volume   10611.23909116
_cell_formula_units_Z   2
loop_
 _symmetry_equiv_pos_site_id
 _symmetry_equiv_pos_as_xyz
  1  'x, y, z'
loop_
 _atom_site_type_symbol
 _atom_site_label
 _atom_site_symmetry_multiplicity
 _atom_site_fract_x
 _atom_site_fract_y
 _atom_site_fract_z
 _atom_site_occupancy
  C  C0  1  0.50000000  0.28988211  0.30530094  1
  C  C1  1  0.50000000  0.28960993  0.63870743  1
  C  C2  1  0.50000000  0.28967156  0.97214818  1
  C  C3  1  0.50000000  0.35003066  0.30570670  1
  C  C4  1  0.50000000  0.34969893  0.63905188  1
  C  C5  1  0.50000000  0.34977909  0.97240097  1
  C  C6  1  0.50000000  0.41006785  0.30554219  1
  C  C7  1  0.50000000  0.40965405  0.63897205  1
  C  C8  1  0.50000000  0.40974220  0.97206514  1
  C  C9  1  0.50000000  0.47028868  0.30572640  1
  C  C10  1  0.50000000  0.46977577  0.63918898  1
  C  C11  1  0.50000000  0.46982942  0.97185190  1
  C  C12  1  0.50000000  0.52953111  0.30708537  1
  C  C13  1  0.50000000  0.52981636  0.63962688  1
  C  C14  1  0.50000000  0.52968369  0.97158623  1
  C  C15  1  0.50000000  0.59015140  0.63954640  1
  C  C16  1  0.50000000  0.59017677  0.96860394  1
  C  C17  1  0.50000000  0.65031475  0.30730425  1
  C  C18  1  0.50000000  0.65046791  0.63968949  1
  C  C19  1  0.50000000  0.65065504  0.97166209  1
  C  C20  1  0.50000000  0.70967285  0.30551733  1
  C  C21  1  0.50000000  0.71064506  0.63914899  1
  C  C22  1  0.50000000  0.71065180  0.97172693  1
  C  C23  1  0.50000000  0.28974172  0.02803560  1
  C  C24  1  0.50000000  0.28983886  0.36116252  1
  C  C25  1  0.50000000  0.28958552  0.69462008  1
  C  C26  1  0.50000000  0.34985505  0.02761494  1
  C  C27  1  0.50000000  0.34997945  0.36092640  1
  C  C28  1  0.50000000  0.34967862  0.69428440  1
  C  C29  1  0.50000000  0.40981259  0.02767139  1
  C  C30  1  0.50000000  0.41002864  0.36123151  1
  C  C31  1  0.50000000  0.40963597  0.69449946  1
  C  C32  1  0.50000000  0.46985643  0.02731910  1
  C  C33  1  0.50000000  0.47025742  0.36141568  1
  C  C34  1  0.50000000  0.46975714  0.69459000  1
  C  C35  1  0.50000000  0.52894901  0.02565089  1
  C  C36  1  0.50000000  0.52945081  0.36045278  1
  C  C37  1  0.50000000  0.52983760  0.69465559  1
  C  C38  1  0.50000000  0.59014614  0.69495463  1
  C  C39  1  0.50000000  0.65141011  0.02547976  1
  C  C40  1  0.50000000  0.65050457  0.36055253  1
  C  C41  1  0.50000000  0.65041949  0.69454856  1
  C  C42  1  0.50000000  0.71061813  0.02746387  1
  C  C43  1  0.50000000  0.70982250  0.36145191  1
  C  C44  1  0.50000000  0.71061396  0.69481715  1
  C  C45  1  0.50000000  0.26035647  0.05681695  1
  C  C46  1  0.50000000  0.26041540  0.38988000  1
  C  C47  1  0.50000000  0.26021826  0.72342342  1
  C  C48  1  0.50000000  0.31974291  0.05557616  1
  C  C49  1  0.50000000  0.31979856  0.38878879  1
  C  C50  1  0.50000000  0.31954679  0.72221714  1
  C  C51  1  0.50000000  0.37992392  0.05549523  1
  C  C52  1  0.50000000  0.38002483  0.38892403  1
  C  C53  1  0.50000000  0.37970208  0.72221344  1
  C  C54  1  0.50000000  0.43986484  0.05549680  1
  C  C55  1  0.50000000  0.44000007  0.38920869  1
  C  C56  1  0.50000000  0.43967753  0.72237777  1
  C  C57  1  0.50000000  0.50001645  0.05458159  1
  C  C58  1  0.50000000  0.50013657  0.38925642  1
  C  C59  1  0.50000000  0.49973648  0.72229072  1
  C  C60  1  0.50000000  0.56003883  0.72243682  1
  C  C61  1  0.50000000  0.62021589  0.72240689  1
  C  C62  1  0.50000000  0.68040337  0.05448707  1
  C  C63  1  0.50000000  0.68001727  0.38936568  1
  C  C64  1  0.50000000  0.68061652  0.72229969  1
  C  C65  1  0.50000000  0.73986964  0.05682339  1
  C  C66  1  0.50000000  0.73947624  0.39003796  1
  C  C67  1  0.50000000  0.74002993  0.72345446  1
  C  C68  1  0.50000000  0.26039493  0.11006217  1
  C  C69  1  0.50000000  0.26036235  0.44311061  1
  C  C70  1  0.50000000  0.26022846  0.77668718  1
  C  C71  1  0.50000000  0.31980615  0.11117424  1
  C  C72  1  0.50000000  0.31972506  0.44439744  1
  C  C73  1  0.50000000  0.31955227  0.77782129  1
  C  C74  1  0.50000000  0.38003265  0.11106726  1
  C  C75  1  0.50000000  0.37991138  0.44449712  1
  C  C76  1  0.50000000  0.37970391  0.77778688  1
  C  C77  1  0.50000000  0.44001037  0.11080423  1
  C  C78  1  0.50000000  0.43984957  0.44451229  1
  C  C79  1  0.50000000  0.43967705  0.77760438  1
  C  C80  1  0.50000000  0.50014707  0.11082183  1
  C  C81  1  0.50000000  0.49996252  0.44544906  1
  C  C82  1  0.50000000  0.49973426  0.77768132  1
  C  C83  1  0.50000000  0.56003798  0.77753984  1
  C  C84  1  0.50000000  0.62021724  0.77757870  1
  C  C85  1  0.50000000  0.67996158  0.11064190  1
  C  C86  1  0.50000000  0.68045231  0.44552398  1
  C  C87  1  0.50000000  0.68061776  0.77773015  1
  C  C88  1  0.50000000  0.73946382  0.10995740  1
  C  C89  1  0.50000000  0.73987863  0.44315630  1
  C  C90  1  0.50000000  0.74002528  0.77662061  1
  C  C91  1  0.50000000  0.28983954  0.13874946  1
  C  C92  1  0.50000000  0.28972042  0.47195375  1
  C  C93  1  0.50000000  0.28959982  0.80545596  1
  C  C94  1  0.50000000  0.34998403  0.13905204  1
  C  C95  1  0.50000000  0.34983825  0.47237181  1
  C  C96  1  0.50000000  0.34968582  0.80573307  1
  C  C97  1  0.50000000  0.41003646  0.13876709  1
  C  C98  1  0.50000000  0.40980078  0.47232740  1
  C  C99  1  0.50000000  0.40963807  0.80549423  1
  C  C100  1  0.50000000  0.47025575  0.13862841  1
  C  C101  1  0.50000000  0.46982213  0.47271250  1
  C  C102  1  0.50000000  0.46975524  0.80538615  1
  C  C103  1  0.50000000  0.52946604  0.13965943  1
  C  C104  1  0.50000000  0.52891795  0.47421164  1
  C  C105  1  0.50000000  0.52983403  0.80531590  1
  C  C106  1  0.50000000  0.59014604  0.80502260  1
  C  C107  1  0.50000000  0.65046883  0.13953973  1
  C  C108  1  0.50000000  0.65143681  0.47447540  1
  C  C109  1  0.50000000  0.65041828  0.80545197  1
  C  C110  1  0.50000000  0.70978271  0.13851072  1
  C  C111  1  0.50000000  0.71065356  0.47255812  1
  C  C112  1  0.50000000  0.71060846  0.80524243  1
  C  C113  1  0.50000000  0.28989927  0.19460379  1
  C  C114  1  0.50000000  0.28965122  0.52785119  1
  C  C115  1  0.50000000  0.28960930  0.86136444  1
  C  C116  1  0.50000000  0.35003998  0.19426267  1
  C  C117  1  0.50000000  0.34976464  0.52760161  1
  C  C118  1  0.50000000  0.34969915  0.86095620  1
  C  C119  1  0.50000000  0.41007255  0.19445657  1
  C  C120  1  0.50000000  0.40973922  0.52793544  1
  C  C121  1  0.50000000  0.40965132  0.86102111  1
  C  C122  1  0.50000000  0.47029364  0.19431372  1
  C  C123  1  0.50000000  0.46982735  0.52815089  1
  C  C124  1  0.50000000  0.46976773  0.86078572  1
  C  C125  1  0.50000000  0.52952981  0.19301936  1
  C  C126  1  0.50000000  0.52969309  0.52829245  1
  C  C127  1  0.50000000  0.52980955  0.86033967  1
  C  C128  1  0.50000000  0.59018511  0.53133080  1
  C  C129  1  0.50000000  0.59015154  0.86041462  1
  C  C130  1  0.50000000  0.65030695  0.19278916  1
  C  C131  1  0.50000000  0.65066240  0.52830305  1
  C  C132  1  0.50000000  0.65047261  0.86030496  1
  C  C133  1  0.50000000  0.70964846  0.19444865  1
  C  C134  1  0.50000000  0.71066578  0.52828717  1
  C  C135  1  0.50000000  0.71065145  0.86091360  1
  C  C136  1  0.50000000  0.26047158  0.22332479  1
  C  C137  1  0.50000000  0.26027108  0.55664884  1
  C  C138  1  0.50000000  0.26023542  0.89014899  1
  C  C139  1  0.50000000  0.31988718  0.22217011  1
  C  C140  1  0.50000000  0.31960850  0.55548650  1
  C  C141  1  0.50000000  0.31958546  0.88892924  1
  C  C142  1  0.50000000  0.38013220  0.22219215  1
  C  C143  1  0.50000000  0.37977559  0.55559890  1
  C  C144  1  0.50000000  0.37974038  0.88883428  1
  C  C145  1  0.50000000  0.44014113  0.22233459  1
  C  C146  1  0.50000000  0.43970253  0.55595726  1
  C  C147  1  0.50000000  0.43970201  0.88881771  1
  C  C148  1  0.50000000  0.50025264  0.22199119  1
  C  C149  1  0.50000000  0.49970642  0.55620999  1
  C  C150  1  0.50000000  0.49974274  0.88825598  1
  C  C151  1  0.50000000  0.56024163  0.55692965  1
  C  C152  1  0.50000000  0.56001894  0.88789103  1
  C  C153  1  0.50000000  0.62004745  0.55691623  1
  C  C154  1  0.50000000  0.62027628  0.88786489  1
  C  C155  1  0.50000000  0.67965052  0.22199700  1
  C  C156  1  0.50000000  0.68076958  0.55625283  1
  C  C157  1  0.50000000  0.68070023  0.88824209  1
  C  C158  1  0.50000000  0.73912092  0.22338540  1
  C  C159  1  0.50000000  0.74013102  0.55712591  1
  C  C160  1  0.50000000  0.74009728  0.88980922  1
  C  C161  1  0.50000000  0.26045911  0.27654459  1
  C  C162  1  0.50000000  0.26025468  0.60990027  1
  C  C163  1  0.50000000  0.26026601  0.94341293  1
  C  C164  1  0.50000000  0.31987998  0.27777538  1
  C  C165  1  0.50000000  0.31957980  0.61109728  1
  C  C166  1  0.50000000  0.31962424  0.94452932  1
  C  C167  1  0.50000000  0.38012879  0.27779683  1
  C  C168  1  0.50000000  0.37973992  0.61116354  1
  C  C169  1  0.50000000  0.37978256  0.94439862  1
  C  C170  1  0.50000000  0.44014075  0.27768109  1
  C  C171  1  0.50000000  0.43970589  0.61117138  1
  C  C172  1  0.50000000  0.43970179  0.94403928  1
  C  C173  1  0.50000000  0.50025633  0.27807336  1
  C  C174  1  0.50000000  0.49975341  0.61170883  1
  C  C175  1  0.50000000  0.49968953  0.94374286  1
  C  C176  1  0.50000000  0.56002048  0.61206023  1
  C  C177  1  0.50000000  0.56022940  0.94302287  1
  C  C178  1  0.50000000  0.62027670  0.61209926  1
  C  C179  1  0.50000000  0.62004041  0.94303904  1
  C  C180  1  0.50000000  0.67965117  0.27803687  1
  C  C181  1  0.50000000  0.68069967  0.61177314  1
  C  C182  1  0.50000000  0.68076426  0.94374865  1
  C  C183  1  0.50000000  0.73913230  0.27651655  1
  C  C184  1  0.50000000  0.74006917  0.61023275  1
  C  C185  1  0.50000000  0.74014640  0.94294027  1
  H  H186  1  0.50000000  0.23699205  0.03661574  1
  H  H187  1  0.50000000  0.23699611  0.36987226  1
  H  H188  1  0.50000000  0.23683214  0.70333230  1
  H  H189  1  0.50000000  0.76337170  0.03703204  1
  H  H190  1  0.50000000  0.76276419  0.36969636  1
  H  H191  1  0.50000000  0.76337705  0.70328393  1
  H  H192  1  0.50000000  0.23702981  0.13026284  1
  H  H193  1  0.50000000  0.23691811  0.46304075  1
  H  H194  1  0.50000000  0.23686209  0.79684237  1
  H  H195  1  0.50000000  0.76268467  0.13053637  1
  H  H196  1  0.50000000  0.76344869  0.46269375  1
  H  H197  1  0.50000000  0.76335612  0.79684266  1
  H  H198  1  0.50000000  0.23709903  0.20315572  1
  H  H199  1  0.50000000  0.23683364  0.53672057  1
  H  H200  1  0.50000000  0.23686883  0.86996551  1
  H  H201  1  0.50000000  0.76251999  0.20331121  1
  H  H202  1  0.50000000  0.76353200  0.53707775  1
  H  H203  1  0.50000000  0.76344070  0.86956420  1
  H  H204  1  0.50000000  0.23706594  0.29664780  1
  H  H205  1  0.50000000  0.23684096  0.62991710  1
  H  H206  1  0.50000000  0.23690587  0.96360232  1
  H  H207  1  0.50000000  0.76255720  0.29649627  1
  H  H208  1  0.50000000  0.76347761  0.63024475  1
  H  H209  1  0.50000000  0.76346927  0.96326563  1
  H  H210  1  0.50000000  0.55298501  0.28716988  1
  H  H211  1  0.50000000  0.59023664  0.01074114  1
  H  H212  1  0.50000000  0.62680971  0.28751623  1
  H  H213  1  0.50000000  0.55201117  0.04639539  1
  H  H214  1  0.50000000  0.55285924  0.38053243  1
  H  H215  1  0.50000000  0.62845802  0.04644826  1
  H  H216  1  0.50000000  0.62708330  0.38061901  1
  H  H217  1  0.50000000  0.55291688  0.11968943  1
  H  H218  1  0.50000000  0.55192698  0.45328311  1
  H  H219  1  0.50000000  0.62701230  0.11959482  1
  H  H220  1  0.50000000  0.62855259  0.45328737  1
  H  H221  1  0.50000000  0.55295618  0.21300268  1
  H  H222  1  0.50000000  0.59023783  0.48916049  1
  H  H223  1  0.50000000  0.62683951  0.21270681  1
