# generated using pymatgen
data_HC7
_symmetry_space_group_name_H-M   'P 1'
_cell_length_a   20.00000000
_cell_length_b   37.22700000
_cell_length_c   25.73678865
_cell_angle_alpha   90.00000000
_cell_angle_beta   90.00000000
_cell_angle_gamma   90.00000000
_symmetry_Int_Tables_number   1
_chemical_formula_structural   HC7
_chemical_formula_sum   'H24 C168'
_cell_volume   19162.06862204
_cell_formula_units_Z   24
loop_
 _symmetry_equiv_pos_site_id
 _symmetry_equiv_pos_as_xyz
  1  'x, y, z'
loop_
 _atom_site_type_symbol
 _atom_site_label
 _atom_site_symmetry_multiplicity
 _atom_site_fract_x
 _atom_site_fract_y
 _atom_site_fract_z
 _atom_site_occupancy
  C  C0  1  0.50000000  0.31755023  0.22212156  1
  C  C1  1  0.50000000  0.31754871  0.55545340  1
  C  C2  1  0.50000000  0.31753697  0.88877466  1
  C  C3  1  0.50000000  0.38396516  0.22237918  1
  C  C4  1  0.50000000  0.38396286  0.55571101  1
  C  C5  1  0.50000000  0.38396183  0.88904503  1
  C  C6  1  0.50000000  0.45028294  0.22220659  1
  C  C7  1  0.50000000  0.45028252  0.55553995  1
  C  C8  1  0.50000000  0.45028246  0.88887190  1
  C  C9  1  0.50000000  0.51659287  0.22232066  1
  C  C10  1  0.50000000  0.51659227  0.55565275  1
  C  C11  1  0.50000000  0.51659262  0.88898667  1
  C  C12  1  0.50000000  0.58281593  0.22225891  1
  C  C13  1  0.50000000  0.58281548  0.55559122  1
  C  C14  1  0.50000000  0.58281711  0.88892496  1
  C  C15  1  0.50000000  0.64932326  0.22216607  1
  C  C16  1  0.50000000  0.64931731  0.55550082  1
  C  C17  1  0.50000000  0.64932271  0.88883663  1
  C  C18  1  0.50000000  0.71494563  0.22334471  1
  C  C19  1  0.50000000  0.71495659  0.55664646  1
  C  C20  1  0.50000000  0.71496479  0.89002610  1
  C  C21  1  0.50000000  0.31755079  0.27787628  1
  C  C22  1  0.50000000  0.31753657  0.61122764  1
  C  C23  1  0.50000000  0.31754203  0.94452992  1
  C  C24  1  0.50000000  0.38396491  0.27762108  1
  C  C25  1  0.50000000  0.38396143  0.61095569  1
  C  C26  1  0.50000000  0.38396277  0.94428943  1
  C  C27  1  0.50000000  0.45028379  0.27779357  1
  C  C28  1  0.50000000  0.45028333  0.61112836  1
  C  C29  1  0.50000000  0.45028339  0.94446030  1
  C  C30  1  0.50000000  0.51659565  0.27768042  1
  C  C31  1  0.50000000  0.51659538  0.61101451  1
  C  C32  1  0.50000000  0.51659508  0.94434841  1
  C  C33  1  0.50000000  0.58282141  0.27774299  1
  C  C34  1  0.50000000  0.58282255  0.61107698  1
  C  C35  1  0.50000000  0.58282122  0.94441068  1
  C  C36  1  0.50000000  0.64933193  0.27784177  1
  C  C37  1  0.50000000  0.64933107  0.61117035  1
  C  C38  1  0.50000000  0.64932725  0.94450660  1
  C  C39  1  0.50000000  0.71495912  0.27664995  1
  C  C40  1  0.50000000  0.71497748  0.60996119  1
  C  C41  1  0.50000000  0.71497203  0.94334200  1
  C  C42  1  0.50000000  0.28503596  0.30664615  1
  C  C43  1  0.50000000  0.28502152  0.64004953  1
  C  C44  1  0.50000000  0.28504720  0.97334335  1
  C  C45  1  0.50000000  0.35067641  0.30549605  1
  C  C46  1  0.50000000  0.35067164  0.63883305  1
  C  C47  1  0.50000000  0.35067124  0.97216175  1
  C  C48  1  0.50000000  0.41718183  0.30559043  1
  C  C49  1  0.50000000  0.41718032  0.63892429  1
  C  C50  1  0.50000000  0.41718150  0.97225817  1
  C  C51  1  0.50000000  0.48340739  0.30565238  1
  C  C52  1  0.50000000  0.48340707  0.63898643  1
  C  C53  1  0.50000000  0.48340681  0.97232040  1
  C  C54  1  0.50000000  0.54971963  0.30554004  1
  C  C55  1  0.50000000  0.54971966  0.63887211  1
  C  C56  1  0.50000000  0.54971926  0.97220677  1
  C  C57  1  0.50000000  0.61604106  0.30571214  1
  C  C58  1  0.50000000  0.61604222  0.63904619  1
  C  C59  1  0.50000000  0.61603924  0.97238040  1
  C  C60  1  0.50000000  0.68246816  0.30547509  1
  C  C61  1  0.50000000  0.68247329  0.63877563  1
  C  C62  1  0.50000000  0.68246069  0.97212509  1
  C  C63  1  0.50000000  0.28504720  0.02665665  1
  C  C64  1  0.50000000  0.28502152  0.35995047  1
  C  C65  1  0.50000000  0.28503596  0.69335385  1
  C  C66  1  0.50000000  0.35067124  0.02783825  1
  C  C67  1  0.50000000  0.35067164  0.36116695  1
  C  C68  1  0.50000000  0.35067641  0.69450395  1
  C  C69  1  0.50000000  0.41718150  0.02774183  1
  C  C70  1  0.50000000  0.41718032  0.36107571  1
  C  C71  1  0.50000000  0.41718183  0.69440957  1
  C  C72  1  0.50000000  0.48340681  0.02767960  1
  C  C73  1  0.50000000  0.48340707  0.36101357  1
  C  C74  1  0.50000000  0.48340739  0.69434762  1
  C  C75  1  0.50000000  0.54971926  0.02779323  1
  C  C76  1  0.50000000  0.54971966  0.36112789  1
  C  C77  1  0.50000000  0.54971963  0.69445996  1
  C  C78  1  0.50000000  0.61603924  0.02761960  1
  C  C79  1  0.50000000  0.61604222  0.36095381  1
  C  C80  1  0.50000000  0.61604106  0.69428786  1
  C  C81  1  0.50000000  0.68246069  0.02787491  1
  C  C82  1  0.50000000  0.68247329  0.36122437  1
  C  C83  1  0.50000000  0.68246816  0.69452491  1
  C  C84  1  0.50000000  0.31754203  0.05547008  1
  C  C85  1  0.50000000  0.31753657  0.38877236  1
  C  C86  1  0.50000000  0.31755079  0.72212372  1
  C  C87  1  0.50000000  0.38396277  0.05571057  1
  C  C88  1  0.50000000  0.38396143  0.38904431  1
  C  C89  1  0.50000000  0.38396491  0.72237892  1
  C  C90  1  0.50000000  0.45028339  0.05553970  1
  C  C91  1  0.50000000  0.45028333  0.38887164  1
  C  C92  1  0.50000000  0.45028379  0.72220643  1
  C  C93  1  0.50000000  0.51659508  0.05565159  1
  C  C94  1  0.50000000  0.51659538  0.38898549  1
  C  C95  1  0.50000000  0.51659565  0.72231958  1
  C  C96  1  0.50000000  0.58282122  0.05558932  1
  C  C97  1  0.50000000  0.58282255  0.38892302  1
  C  C98  1  0.50000000  0.58282141  0.72225701  1
  C  C99  1  0.50000000  0.64932725  0.05549340  1
  C  C100  1  0.50000000  0.64933107  0.38882965  1
  C  C101  1  0.50000000  0.64933193  0.72215823  1
  C  C102  1  0.50000000  0.71497203  0.05665800  1
  C  C103  1  0.50000000  0.71497748  0.39003881  1
  C  C104  1  0.50000000  0.71495912  0.72335005  1
  C  C105  1  0.50000000  0.31753697  0.11122534  1
  C  C106  1  0.50000000  0.31754871  0.44454660  1
  C  C107  1  0.50000000  0.31755023  0.77787844  1
  C  C108  1  0.50000000  0.38396183  0.11095497  1
  C  C109  1  0.50000000  0.38396286  0.44428899  1
  C  C110  1  0.50000000  0.38396516  0.77762082  1
  C  C111  1  0.50000000  0.45028246  0.11112810  1
  C  C112  1  0.50000000  0.45028252  0.44446005  1
  C  C113  1  0.50000000  0.45028294  0.77779341  1
  C  C114  1  0.50000000  0.51659262  0.11101333  1
  C  C115  1  0.50000000  0.51659227  0.44434725  1
  C  C116  1  0.50000000  0.51659287  0.77767934  1
  C  C117  1  0.50000000  0.58281711  0.11107504  1
  C  C118  1  0.50000000  0.58281548  0.44440878  1
  C  C119  1  0.50000000  0.58281593  0.77774109  1
  C  C120  1  0.50000000  0.64932271  0.11116337  1
  C  C121  1  0.50000000  0.64931731  0.44449918  1
  C  C122  1  0.50000000  0.64932326  0.77783393  1
  C  C123  1  0.50000000  0.71496479  0.10997390  1
  C  C124  1  0.50000000  0.71495659  0.44335354  1
  C  C125  1  0.50000000  0.71494563  0.77665529  1
  C  C126  1  0.50000000  0.28502880  0.14003361  1
  C  C127  1  0.50000000  0.28504783  0.47335001  1
  C  C128  1  0.50000000  0.28503538  0.80665682  1
  C  C129  1  0.50000000  0.35067464  0.13883333  1
  C  C130  1  0.50000000  0.35067362  0.47216257  1
  C  C131  1  0.50000000  0.35067916  0.80549814  1
  C  C132  1  0.50000000  0.41718021  0.13892380  1
  C  C133  1  0.50000000  0.41718134  0.47225773  1
  C  C134  1  0.50000000  0.41718168  0.80559006  1
  C  C135  1  0.50000000  0.48340487  0.13898577  1
  C  C136  1  0.50000000  0.48340461  0.47231979  1
  C  C137  1  0.50000000  0.48340521  0.80565185  1
  C  C138  1  0.50000000  0.54971465  0.13887150  1
  C  C139  1  0.50000000  0.54971413  0.47220618  1
  C  C140  1  0.50000000  0.54971456  0.80553951  1
  C  C141  1  0.50000000  0.61603461  0.13904351  1
  C  C142  1  0.50000000  0.61603085  0.47237792  1
  C  C143  1  0.50000000  0.61603339  0.80570959  1
  C  C144  1  0.50000000  0.68245319  0.13877115  1
  C  C145  1  0.50000000  0.68243854  0.47211986  1
  C  C146  1  0.50000000  0.68244852  0.80546734  1
  C  C147  1  0.50000000  0.28503538  0.19334318  1
  C  C148  1  0.50000000  0.28504783  0.52664999  1
  C  C149  1  0.50000000  0.28502880  0.85996639  1
  C  C150  1  0.50000000  0.35067916  0.19450186  1
  C  C151  1  0.50000000  0.35067362  0.52783743  1
  C  C152  1  0.50000000  0.35067464  0.86116667  1
  C  C153  1  0.50000000  0.41718168  0.19440994  1
  C  C154  1  0.50000000  0.41718134  0.52774227  1
  C  C155  1  0.50000000  0.41718021  0.86107620  1
  C  C156  1  0.50000000  0.48340521  0.19434815  1
  C  C157  1  0.50000000  0.48340461  0.52768021  1
  C  C158  1  0.50000000  0.48340487  0.86101423  1
  C  C159  1  0.50000000  0.54971456  0.19446049  1
  C  C160  1  0.50000000  0.54971413  0.52779382  1
  C  C161  1  0.50000000  0.54971465  0.86112850  1
  C  C162  1  0.50000000  0.61603339  0.19429041  1
  C  C163  1  0.50000000  0.61603085  0.52762208  1
  C  C164  1  0.50000000  0.61603461  0.86095649  1
  C  C165  1  0.50000000  0.68244852  0.19453266  1
  C  C166  1  0.50000000  0.68243854  0.52788014  1
  C  C167  1  0.50000000  0.68245319  0.86122885  1
  H  H168  1  0.50000000  0.74081716  0.20336230  1
  H  H169  1  0.50000000  0.74077741  0.53650558  1
  H  H170  1  0.50000000  0.74081117  0.86996695  1
  H  H171  1  0.50000000  0.74084788  0.29660951  1
  H  H172  1  0.50000000  0.74084781  0.62997773  1
  H  H173  1  0.50000000  0.74081127  0.96345631  1
  H  H174  1  0.50000000  0.25919979  0.28654287  1
  H  H175  1  0.50000000  0.25916258  0.62002235  1
  H  H176  1  0.50000000  0.25916242  0.95339243  1
  H  H177  1  0.50000000  0.25916242  0.04660757  1
  H  H178  1  0.50000000  0.25916258  0.37997765  1
  H  H179  1  0.50000000  0.25919979  0.71345713  1
  H  H180  1  0.50000000  0.74081127  0.03654369  1
  H  H181  1  0.50000000  0.74084781  0.37002227  1
  H  H182  1  0.50000000  0.74084788  0.70339049  1
  H  H183  1  0.50000000  0.74081117  0.13003305  1
  H  H184  1  0.50000000  0.74077741  0.46349442  1
  H  H185  1  0.50000000  0.74081716  0.79663770  1
  H  H186  1  0.50000000  0.25917781  0.11996898  1
  H  H187  1  0.50000000  0.25917216  0.45336120  1
  H  H188  1  0.50000000  0.25921120  0.78650742  1
  H  H189  1  0.50000000  0.25921120  0.21349258  1
  H  H190  1  0.50000000  0.25917216  0.54663880  1
  H  H191  1  0.50000000  0.25917781  0.88003102  1
