# generated using pymatgen
data_H19C93
_symmetry_space_group_name_H-M   'P 1'
_cell_length_a   10.00000000
_cell_length_b   41.10890000
_cell_length_c   25.84427226
_cell_angle_alpha   90.00000000
_cell_angle_beta   90.00000000
_cell_angle_gamma   90.00000000
_symmetry_Int_Tables_number   1
_chemical_formula_structural   H19C93
_chemical_formula_sum   'H38 C186'
_cell_volume   10624.29603962
_cell_formula_units_Z   2
loop_
 _symmetry_equiv_pos_site_id
 _symmetry_equiv_pos_as_xyz
  1  'x, y, z'
loop_
 _atom_site_type_symbol
 _atom_site_label
 _atom_site_symmetry_multiplicity
 _atom_site_fract_x
 _atom_site_fract_y
 _atom_site_fract_z
 _atom_site_occupancy
  C  C0  1  0.50000000  0.28990968  0.30519516  1
  C  C1  1  0.50000000  0.28958473  0.63865965  1
  C  C2  1  0.50000000  0.28963277  0.97198572  1
  C  C3  1  0.50000000  0.35018472  0.30554689  1
  C  C4  1  0.50000000  0.34976050  0.63901161  1
  C  C5  1  0.50000000  0.34983855  0.97210784  1
  C  C6  1  0.50000000  0.41019898  0.30573753  1
  C  C7  1  0.50000000  0.40971930  0.63920626  1
  C  C8  1  0.50000000  0.40975680  0.97183180  1
  C  C9  1  0.50000000  0.46939597  0.30696454  1
  C  C10  1  0.50000000  0.46974277  0.63944246  1
  C  C11  1  0.50000000  0.46963144  0.97140431  1
  C  C12  1  0.50000000  0.53007692  0.63946825  1
  C  C13  1  0.50000000  0.53012058  0.96872422  1
  C  C14  1  0.50000000  0.59054667  0.30702263  1
  C  C15  1  0.50000000  0.59039711  0.63955323  1
  C  C16  1  0.50000000  0.59056651  0.97147612  1
  C  C17  1  0.50000000  0.64964978  0.30577819  1
  C  C18  1  0.50000000  0.65034950  0.63922422  1
  C  C19  1  0.50000000  0.65029177  0.97189172  1
  C  C20  1  0.50000000  0.70980713  0.30521459  1
  C  C21  1  0.50000000  0.71053898  0.63873993  1
  C  C22  1  0.50000000  0.71043713  0.97184406  1
  C  C23  1  0.50000000  0.28968393  0.02809091  1
  C  C24  1  0.50000000  0.28986616  0.36132870  1
  C  C25  1  0.50000000  0.28957594  0.69473753  1
  C  C26  1  0.50000000  0.34989836  0.02764157  1
  C  C27  1  0.50000000  0.35013940  0.36125273  1
  C  C28  1  0.50000000  0.34976200  0.69445999  1
  C  C29  1  0.50000000  0.40972576  0.02722529  1
  C  C30  1  0.50000000  0.41014903  0.36138337  1
  C  C31  1  0.50000000  0.40973197  0.69455813  1
  C  C32  1  0.50000000  0.46877854  0.02584525  1
  C  C33  1  0.50000000  0.46929647  0.36053624  1
  C  C34  1  0.50000000  0.46981419  0.69477591  1
  C  C35  1  0.50000000  0.53009856  0.69492030  1
  C  C36  1  0.50000000  0.59129699  0.02563465  1
  C  C37  1  0.50000000  0.59064346  0.36052998  1
  C  C38  1  0.50000000  0.59035299  0.69472377  1
  C  C39  1  0.50000000  0.65024883  0.02717001  1
  C  C40  1  0.50000000  0.64971944  0.36130185  1
  C  C41  1  0.50000000  0.65034331  0.69452692  1
  C  C42  1  0.50000000  0.71030931  0.02795260  1
  C  C43  1  0.50000000  0.70988473  0.36140705  1
  C  C44  1  0.50000000  0.71055275  0.69480921  1
  C  C45  1  0.50000000  0.26047759  0.05671017  1
  C  C46  1  0.50000000  0.26058431  0.38979122  1
  C  C47  1  0.50000000  0.26032665  0.72335737  1
  C  C48  1  0.50000000  0.31975314  0.05553794  1
  C  C49  1  0.50000000  0.31985573  0.38891542  1
  C  C50  1  0.50000000  0.31958427  0.72226954  1
  C  C51  1  0.50000000  0.37981766  0.05524116  1
  C  C52  1  0.50000000  0.37989851  0.38898673  1
  C  C53  1  0.50000000  0.37967746  0.72217000  1
  C  C54  1  0.50000000  0.44003339  0.05444414  1
  C  C55  1  0.50000000  0.44015778  0.38914722  1
  C  C56  1  0.50000000  0.43980018  0.72227228  1
  C  C57  1  0.50000000  0.49998548  0.72237672  1
  C  C58  1  0.50000000  0.56014378  0.72236517  1
  C  C59  1  0.50000000  0.62007184  0.05436926  1
  C  C60  1  0.50000000  0.61987112  0.38907230  1
  C  C61  1  0.50000000  0.62040252  0.72220545  1
  C  C62  1  0.50000000  0.68030536  0.05533736  1
  C  C63  1  0.50000000  0.68009207  0.38906240  1
  C  C64  1  0.50000000  0.68055519  0.72228508  1
  C  C65  1  0.50000000  0.73949145  0.05677599  1
  C  C66  1  0.50000000  0.73924934  0.38982805  1
  C  C67  1  0.50000000  0.73981467  0.72340921  1
  C  C68  1  0.50000000  0.26057599  0.11017873  1
  C  C69  1  0.50000000  0.26047926  0.44324259  1
  C  C70  1  0.50000000  0.26033818  0.77677729  1
  C  C71  1  0.50000000  0.31987304  0.11105461  1
  C  C72  1  0.50000000  0.31973437  0.44445538  1
  C  C73  1  0.50000000  0.31959191  0.77778574  1
  C  C74  1  0.50000000  0.37992859  0.11101889  1
  C  C75  1  0.50000000  0.37979347  0.44476522  1
  C  C76  1  0.50000000  0.37967302  0.77783333  1
  C  C77  1  0.50000000  0.44020563  0.11088568  1
  C  C78  1  0.50000000  0.44000633  0.44556718  1
  C  C79  1  0.50000000  0.43979653  0.77769635  1
  C  C80  1  0.50000000  0.49998572  0.77759904  1
  C  C81  1  0.50000000  0.56014446  0.77760908  1
  C  C82  1  0.50000000  0.61982643  0.11094596  1
  C  C83  1  0.50000000  0.62011617  0.44561369  1
  C  C84  1  0.50000000  0.62040260  0.77777199  1
  C  C85  1  0.50000000  0.68005974  0.11091432  1
  C  C86  1  0.50000000  0.68032790  0.44462801  1
  C  C87  1  0.50000000  0.68054741  0.77773851  1
  C  C88  1  0.50000000  0.73924748  0.11012945  1
  C  C89  1  0.50000000  0.73948858  0.44317325  1
  C  C90  1  0.50000000  0.73980490  0.77676087  1
  C  C91  1  0.50000000  0.28987025  0.13863099  1
  C  C92  1  0.50000000  0.28966753  0.47191569  1
  C  C93  1  0.50000000  0.28959693  0.80533644  1
  C  C94  1  0.50000000  0.35015816  0.13872554  1
  C  C95  1  0.50000000  0.34987618  0.47236675  1
  C  C96  1  0.50000000  0.34976720  0.80557381  1
  C  C97  1  0.50000000  0.41017910  0.13863386  1
  C  C98  1  0.50000000  0.40970678  0.47277248  1
  C  C99  1  0.50000000  0.40972972  0.80542298  1
  C  C100  1  0.50000000  0.46933096  0.13955580  1
  C  C101  1  0.50000000  0.46877969  0.47410070  1
  C  C102  1  0.50000000  0.46981191  0.80519275  1
  C  C103  1  0.50000000  0.53010046  0.80505830  1
  C  C104  1  0.50000000  0.59060479  0.13956020  1
  C  C105  1  0.50000000  0.59131457  0.47428288  1
  C  C106  1  0.50000000  0.59035308  0.80524932  1
  C  C107  1  0.50000000  0.64968793  0.13872643  1
  C  C108  1  0.50000000  0.65028032  0.47281116  1
  C  C109  1  0.50000000  0.65033717  0.80547312  1
  C  C110  1  0.50000000  0.70986575  0.13851871  1
  C  C111  1  0.50000000  0.71032365  0.47203291  1
  C  C112  1  0.50000000  0.71052401  0.80527029  1
  C  C113  1  0.50000000  0.28995087  0.19472249  1
  C  C114  1  0.50000000  0.28961317  0.52803245  1
  C  C115  1  0.50000000  0.28959052  0.86141955  1
  C  C116  1  0.50000000  0.35019706  0.19442557  1
  C  C117  1  0.50000000  0.34982186  0.52790569  1
  C  C118  1  0.50000000  0.34976343  0.86100963  1
  C  C119  1  0.50000000  0.41020755  0.19428422  1
  C  C120  1  0.50000000  0.40974849  0.52816423  1
  C  C121  1  0.50000000  0.40971504  0.86077023  1
  C  C122  1  0.50000000  0.46939414  0.19313436  1
  C  C123  1  0.50000000  0.46964369  0.52853946  1
  C  C124  1  0.50000000  0.46973950  0.86052229  1
  C  C125  1  0.50000000  0.53012364  0.53121733  1
  C  C126  1  0.50000000  0.53008424  0.86050028  1
  C  C127  1  0.50000000  0.59053397  0.19307627  1
  C  C128  1  0.50000000  0.59056361  0.52844687  1
  C  C129  1  0.50000000  0.59040371  0.86042135  1
  C  C130  1  0.50000000  0.64963639  0.19423429  1
  C  C131  1  0.50000000  0.65030423  0.52810089  1
  C  C132  1  0.50000000  0.65035487  0.86076702  1
  C  C133  1  0.50000000  0.70979749  0.19470884  1
  C  C134  1  0.50000000  0.71044808  0.52814284  1
  C  C135  1  0.50000000  0.71053378  0.86131819  1
  C  C136  1  0.50000000  0.26074176  0.22314102  1
  C  C137  1  0.50000000  0.26035908  0.55663563  1
  C  C138  1  0.50000000  0.26033562  0.89000354  1
  C  C139  1  0.50000000  0.32001888  0.22220604  1
  C  C140  1  0.50000000  0.31959793  0.55562619  1
  C  C141  1  0.50000000  0.31960533  0.88890514  1
  C  C142  1  0.50000000  0.38005316  0.22213418  1
  C  C143  1  0.50000000  0.37963047  0.55576154  1
  C  C144  1  0.50000000  0.37968032  0.88858286  1
  C  C145  1  0.50000000  0.44028499  0.22189055  1
  C  C146  1  0.50000000  0.43972345  0.55620264  1
  C  C147  1  0.50000000  0.43977429  0.88824893  1
  C  C148  1  0.50000000  0.50015652  0.55684400  1
  C  C149  1  0.50000000  0.49993081  0.88793763  1
  C  C150  1  0.50000000  0.55996936  0.55682431  1
  C  C151  1  0.50000000  0.56019652  0.88789227  1
  C  C152  1  0.50000000  0.61968283  0.22183797  1
  C  C153  1  0.50000000  0.62046409  0.55614152  1
  C  C154  1  0.50000000  0.62042836  0.88817146  1
  C  C155  1  0.50000000  0.67985674  0.22222214  1
  C  C156  1  0.50000000  0.68057422  0.55583924  1
  C  C157  1  0.50000000  0.68056957  0.88872925  1
  C  C158  1  0.50000000  0.73903862  0.22326617  1
  C  C159  1  0.50000000  0.73975570  0.55671096  1
  C  C160  1  0.50000000  0.73981143  0.88995137  1
  C  C161  1  0.50000000  0.26071199  0.27664641  1
  C  C162  1  0.50000000  0.26034610  0.61006176  1
  C  C163  1  0.50000000  0.26035687  0.94344415  1
  C  C164  1  0.50000000  0.32000166  0.27775205  1
  C  C165  1  0.50000000  0.31959707  0.61113786  1
  C  C166  1  0.50000000  0.31961505  0.94439888  1
  C  C167  1  0.50000000  0.38004956  0.27786306  1
  C  C168  1  0.50000000  0.37967590  0.61141998  1
  C  C169  1  0.50000000  0.37964088  0.94424527  1
  C  C170  1  0.50000000  0.44028894  0.27817924  1
  C  C171  1  0.50000000  0.43978196  0.61171794  1
  C  C172  1  0.50000000  0.43971672  0.94376454  1
  C  C173  1  0.50000000  0.49993100  0.61201717  1
  C  C174  1  0.50000000  0.50015080  0.94311160  1
  C  C175  1  0.50000000  0.56018537  0.61208955  1
  C  C176  1  0.50000000  0.55997204  0.94313060  1
  C  C177  1  0.50000000  0.61968607  0.27820040  1
  C  C178  1  0.50000000  0.62042206  0.61180802  1
  C  C179  1  0.50000000  0.62046827  0.94382863  1
  C  C180  1  0.50000000  0.67986229  0.27773952  1
  C  C181  1  0.50000000  0.68057144  0.61128573  1
  C  C182  1  0.50000000  0.68056165  0.94416489  1
  C  C183  1  0.50000000  0.73904537  0.27663524  1
  C  C184  1  0.50000000  0.73978882  0.61005980  1
  C  C185  1  0.50000000  0.73976368  0.94331290  1
  H  H186  1  0.50000000  0.23701077  0.03677053  1
  H  H187  1  0.50000000  0.23711316  0.36990299  1
  H  H188  1  0.50000000  0.23685512  0.70347152  1
  H  H189  1  0.50000000  0.76296120  0.03690681  1
  H  H190  1  0.50000000  0.76264247  0.36978121  1
  H  H191  1  0.50000000  0.76324580  0.70344000  1
  H  H192  1  0.50000000  0.23713846  0.13019973  1
  H  H193  1  0.50000000  0.23695232  0.46295149  1
  H  H194  1  0.50000000  0.23690461  0.79676798  1
  H  H195  1  0.50000000  0.76257722  0.13037795  1
  H  H196  1  0.50000000  0.76302467  0.46281316  1
  H  H197  1  0.50000000  0.76320426  0.79684569  1
  H  H198  1  0.50000000  0.23728331  0.20320414  1
  H  H199  1  0.50000000  0.23686456  0.53684965  1
  H  H200  1  0.50000000  0.23690798  0.86998276  1
  H  H201  1  0.50000000  0.76245636  0.20326229  1
  H  H202  1  0.50000000  0.76319927  0.53681516  1
  H  H203  1  0.50000000  0.76322508  0.86991392  1
  H  H204  1  0.50000000  0.23720869  0.29643874  1
  H  H205  1  0.50000000  0.23687413  0.62993795  1
  H  H206  1  0.50000000  0.23692585  0.96345659  1
  H  H207  1  0.50000000  0.76247629  0.29658559  1
  H  H208  1  0.50000000  0.76323798  0.62995711  1
  H  H209  1  0.50000000  0.76314017  0.96344848  1
  H  H210  1  0.50000000  0.49290336  0.28723819  1
  H  H211  1  0.50000000  0.53014913  0.01080014  1
  H  H212  1  0.50000000  0.56705989  0.28721802  1
  H  H213  1  0.50000000  0.49186341  0.04652716  1
  H  H214  1  0.50000000  0.49276828  0.38041894  1
  H  H215  1  0.50000000  0.56830684  0.04647224  1
  H  H216  1  0.50000000  0.56719309  0.38044515  1
  H  H217  1  0.50000000  0.49284923  0.11981031  1
  H  H218  1  0.50000000  0.49180242  0.45320079  1
  H  H219  1  0.50000000  0.56710320  0.11978964  1
  H  H220  1  0.50000000  0.56836514  0.45326434  1
  H  H221  1  0.50000000  0.49287478  0.21295636  1
  H  H222  1  0.50000000  0.53015197  0.48910891  1
  H  H223  1  0.50000000  0.56707625  0.21295159  1
