# generated using pymatgen
data_H13C93
_symmetry_space_group_name_H-M   'P 1'
_cell_length_a   10.00000000
_cell_length_b   41.10890000
_cell_length_c   25.81542875
_cell_angle_alpha   90.00000000
_cell_angle_beta   90.00000000
_cell_angle_gamma   90.00000000
_symmetry_Int_Tables_number   1
_chemical_formula_structural   H13C93
_chemical_formula_sum   'H26 C186'
_cell_volume   10612.43879088
_cell_formula_units_Z   2
loop_
 _symmetry_equiv_pos_site_id
 _symmetry_equiv_pos_as_xyz
  1  'x, y, z'
loop_
 _atom_site_type_symbol
 _atom_site_label
 _atom_site_symmetry_multiplicity
 _atom_site_fract_x
 _atom_site_fract_y
 _atom_site_fract_z
 _atom_site_occupancy
  C  C0  1  0.50000000  0.28901840  0.64036803  1
  C  C1  1  0.50000000  0.28565162  0.96528333  1
  C  C2  1  0.50000000  0.35189413  0.30422162  1
  C  C3  1  0.50000000  0.34918587  0.63878056  1
  C  C4  1  0.50000000  0.34833219  0.97326946  1
  C  C5  1  0.50000000  0.41155288  0.30569879  1
  C  C6  1  0.50000000  0.40915830  0.63844453  1
  C  C7  1  0.50000000  0.40927282  0.97263706  1
  C  C8  1  0.50000000  0.47116991  0.30569624  1
  C  C9  1  0.50000000  0.46946959  0.63876949  1
  C  C10  1  0.50000000  0.46975185  0.97208987  1
  C  C11  1  0.50000000  0.53091101  0.30580139  1
  C  C12  1  0.50000000  0.52970104  0.63905424  1
  C  C13  1  0.50000000  0.52995418  0.97203299  1
  C  C14  1  0.50000000  0.59075458  0.30566597  1
  C  C15  1  0.50000000  0.58983898  0.63912481  1
  C  C16  1  0.50000000  0.59003127  0.97189692  1
  C  C17  1  0.50000000  0.65080343  0.30577502  1
  C  C18  1  0.50000000  0.64998531  0.63934885  1
  C  C19  1  0.50000000  0.65005783  0.97189003  1
  C  C20  1  0.50000000  0.71000420  0.30696103  1
  C  C21  1  0.50000000  0.71034519  0.63881372  1
  C  C22  1  0.50000000  0.70989689  0.97185609  1
  C  C23  1  0.50000000  0.28975365  0.69581816  1
  C  C24  1  0.50000000  0.34988782  0.02909214  1
  C  C25  1  0.50000000  0.35200646  0.35918056  1
  C  C26  1  0.50000000  0.34963385  0.69413209  1
  C  C27  1  0.50000000  0.41015410  0.02789283  1
  C  C28  1  0.50000000  0.41130014  0.36092252  1
  C  C29  1  0.50000000  0.40935949  0.69409308  1
  C  C30  1  0.50000000  0.47024527  0.02754135  1
  C  C31  1  0.50000000  0.47093642  0.36124959  1
  C  C32  1  0.50000000  0.46948657  0.69441035  1
  C  C33  1  0.50000000  0.53028260  0.02742210  1
  C  C34  1  0.50000000  0.53073431  0.36127316  1
  C  C35  1  0.50000000  0.52967227  0.69443379  1
  C  C36  1  0.50000000  0.59028476  0.02744108  1
  C  C37  1  0.50000000  0.59066593  0.36137845  1
  C  C38  1  0.50000000  0.58982840  0.69456651  1
  C  C39  1  0.50000000  0.65032752  0.02726153  1
  C  C40  1  0.50000000  0.65074946  0.36144590  1
  C  C41  1  0.50000000  0.65000875  0.69456487  1
  C  C42  1  0.50000000  0.70955263  0.02615203  1
  C  C43  1  0.50000000  0.70993210  0.36036576  1
  C  C44  1  0.50000000  0.71030543  0.69443129  1
  C  C45  1  0.50000000  0.26035537  0.72371402  1
  C  C46  1  0.50000000  0.32194718  0.06129713  1
  C  C47  1  0.50000000  0.32252359  0.38601206  1
  C  C48  1  0.50000000  0.31971853  0.72243409  1
  C  C49  1  0.50000000  0.38037402  0.05603161  1
  C  C50  1  0.50000000  0.38117878  0.38834043  1
  C  C51  1  0.50000000  0.37951504  0.72206104  1
  C  C52  1  0.50000000  0.44041860  0.05545234  1
  C  C53  1  0.50000000  0.44096747  0.38910174  1
  C  C54  1  0.50000000  0.43942948  0.72222322  1
  C  C55  1  0.50000000  0.50036475  0.05530297  1
  C  C56  1  0.50000000  0.50072532  0.38921491  1
  C  C57  1  0.50000000  0.49953040  0.72223105  1
  C  C58  1  0.50000000  0.56039060  0.05528569  1
  C  C59  1  0.50000000  0.56064907  0.38923424  1
  C  C60  1  0.50000000  0.55974494  0.72228092  1
  C  C61  1  0.50000000  0.62035044  0.05530894  1
  C  C62  1  0.50000000  0.62053514  0.38931683  1
  C  C63  1  0.50000000  0.61989896  0.72234121  1
  C  C64  1  0.50000000  0.68062516  0.05470523  1
  C  C65  1  0.50000000  0.68065935  0.38910329  1
  C  C66  1  0.50000000  0.68022257  0.72221115  1
  C  C67  1  0.50000000  0.73970865  0.72347222  1
  C  C68  1  0.50000000  0.26037284  0.77649525  1
  C  C69  1  0.50000000  0.32253017  0.11380414  1
  C  C70  1  0.50000000  0.32186449  0.43852793  1
  C  C71  1  0.50000000  0.31972835  0.77761908  1
  C  C72  1  0.50000000  0.38119966  0.11159183  1
  C  C73  1  0.50000000  0.38030150  0.44393986  1
  C  C74  1  0.50000000  0.37951380  0.77791322  1
  C  C75  1  0.50000000  0.44098830  0.11083994  1
  C  C76  1  0.50000000  0.44038168  0.44449870  1
  C  C77  1  0.50000000  0.43943022  0.77774025  1
  C  C78  1  0.50000000  0.50074420  0.11076163  1
  C  C79  1  0.50000000  0.50034597  0.44467465  1
  C  C80  1  0.50000000  0.49953493  0.77774881  1
  C  C81  1  0.50000000  0.56066064  0.11077895  1
  C  C82  1  0.50000000  0.56038078  0.44472802  1
  C  C83  1  0.50000000  0.55974709  0.77772138  1
  C  C84  1  0.50000000  0.62055279  0.11072428  1
  C  C85  1  0.50000000  0.62033332  0.44472346  1
  C  C86  1  0.50000000  0.61989722  0.77767574  1
  C  C87  1  0.50000000  0.68069433  0.11095694  1
  C  C88  1  0.50000000  0.68060518  0.44533862  1
  C  C89  1  0.50000000  0.68021213  0.77780764  1
  C  C90  1  0.50000000  0.73969496  0.77663270  1
  C  C91  1  0.50000000  0.28978575  0.80428914  1
  C  C92  1  0.50000000  0.35200727  0.14068693  1
  C  C93  1  0.50000000  0.34979113  0.47083378  1
  C  C94  1  0.50000000  0.34964645  0.80587830  1
  C  C95  1  0.50000000  0.41130901  0.13898193  1
  C  C96  1  0.50000000  0.41010788  0.47204897  1
  C  C97  1  0.50000000  0.40936408  0.80586181  1
  C  C98  1  0.50000000  0.47095013  0.13869962  1
  C  C99  1  0.50000000  0.47021576  0.47241643  1
  C  C100  1  0.50000000  0.46948777  0.80555501  1
  C  C101  1  0.50000000  0.53074431  0.13872213  1
  C  C102  1  0.50000000  0.53026666  0.47257347  1
  C  C103  1  0.50000000  0.52967292  0.80555959  1
  C  C104  1  0.50000000  0.59067772  0.13863687  1
  C  C105  1  0.50000000  0.59027303  0.47258433  1
  C  C106  1  0.50000000  0.58982770  0.80544774  1
  C  C107  1  0.50000000  0.65077598  0.13859542  1
  C  C108  1  0.50000000  0.65031111  0.47277855  1
  C  C109  1  0.50000000  0.65000259  0.80546291  1
  C  C110  1  0.50000000  0.70995836  0.13974384  1
  C  C111  1  0.50000000  0.70953403  0.47389806  1
  C  C112  1  0.50000000  0.71027787  0.80561535  1
  C  C113  1  0.50000000  0.28558173  0.53474030  1
  C  C114  1  0.50000000  0.28902332  0.85970504  1
  C  C115  1  0.50000000  0.35190820  0.19562746  1
  C  C116  1  0.50000000  0.34826187  0.52668584  1
  C  C117  1  0.50000000  0.34920037  0.86121639  1
  C  C118  1  0.50000000  0.41156766  0.19420913  1
  C  C119  1  0.50000000  0.40923621  0.52731823  1
  C  C120  1  0.50000000  0.40917100  0.86151074  1
  C  C121  1  0.50000000  0.47117957  0.19425118  1
  C  C122  1  0.50000000  0.46972225  0.52787537  1
  C  C123  1  0.50000000  0.46947425  0.86119625  1
  C  C124  1  0.50000000  0.53091479  0.19419200  1
  C  C125  1  0.50000000  0.52993709  0.52796329  1
  C  C126  1  0.50000000  0.52970173  0.86093393  1
  C  C127  1  0.50000000  0.59076046  0.19434977  1
  C  C128  1  0.50000000  0.59001927  0.52813234  1
  C  C129  1  0.50000000  0.58983766  0.86088999  1
  C  C130  1  0.50000000  0.65081713  0.19427081  1
  C  C131  1  0.50000000  0.65004990  0.52816562  1
  C  C132  1  0.50000000  0.64997779  0.86067984  1
  C  C133  1  0.50000000  0.71001811  0.19315606  1
  C  C134  1  0.50000000  0.70989031  0.52821306  1
  C  C135  1  0.50000000  0.71031083  0.86122203  1
  C  C136  1  0.50000000  0.25699245  0.56316572  1
  C  C137  1  0.50000000  0.25850656  0.88392805  1
  C  C138  1  0.50000000  0.32227315  0.22347347  1
  C  C139  1  0.50000000  0.31741990  0.55587515  1
  C  C140  1  0.50000000  0.31870124  0.88855485  1
  C  C141  1  0.50000000  0.38182864  0.22241999  1
  C  C142  1  0.50000000  0.37851455  0.55457349  1
  C  C143  1  0.50000000  0.37907752  0.88936438  1
  C  C144  1  0.50000000  0.44139398  0.22222398  1
  C  C145  1  0.50000000  0.43940424  0.55538645  1
  C  C146  1  0.50000000  0.43943954  0.88914779  1
  C  C147  1  0.50000000  0.50105920  0.22220797  1
  C  C148  1  0.50000000  0.49974676  0.55571652  1
  C  C149  1  0.50000000  0.49961976  0.88880561  1
  C  C150  1  0.50000000  0.56088587  0.22220473  1
  C  C151  1  0.50000000  0.55993765  0.55585514  1
  C  C152  1  0.50000000  0.55982405  0.88869798  1
  C  C153  1  0.50000000  0.62072042  0.22228680  1
  C  C154  1  0.50000000  0.61993103  0.55602986  1
  C  C155  1  0.50000000  0.61993210  0.88863821  1
  C  C156  1  0.50000000  0.68075589  0.22200181  1
  C  C157  1  0.50000000  0.67987496  0.55620891  1
  C  C158  1  0.50000000  0.68011299  0.88845522  1
  C  C159  1  0.50000000  0.73972223  0.55645507  1
  C  C160  1  0.50000000  0.73983856  0.89043490  1
  C  C161  1  0.50000000  0.25850421  0.61617591  1
  C  C162  1  0.50000000  0.25704938  0.93693044  1
  C  C163  1  0.50000000  0.32225932  0.27633448  1
  C  C164  1  0.50000000  0.31868158  0.61147154  1
  C  C165  1  0.50000000  0.31747791  0.94414780  1
  C  C166  1  0.50000000  0.38182027  0.27745390  1
  C  C167  1  0.50000000  0.37905352  0.61060074  1
  C  C168  1  0.50000000  0.37856354  0.94537554  1
  C  C169  1  0.50000000  0.44138805  0.27770769  1
  C  C170  1  0.50000000  0.43942693  0.61080645  1
  C  C171  1  0.50000000  0.43943437  0.94457254  1
  C  C172  1  0.50000000  0.50105876  0.27776402  1
  C  C173  1  0.50000000  0.49961622  0.61116557  1
  C  C174  1  0.50000000  0.49976957  0.94425832  1
  C  C175  1  0.50000000  0.56088434  0.27780571  1
  C  C176  1  0.50000000  0.55982616  0.61130533  1
  C  C177  1  0.50000000  0.55995166  0.94415472  1
  C  C178  1  0.50000000  0.62071560  0.27774024  1
  C  C179  1  0.50000000  0.61993511  0.61139074  1
  C  C180  1  0.50000000  0.61994087  0.94400813  1
  C  C181  1  0.50000000  0.68074587  0.27807793  1
  C  C182  1  0.50000000  0.68013065  0.61159362  1
  C  C183  1  0.50000000  0.67988141  0.94384568  1
  C  C184  1  0.50000000  0.73987017  0.60956626  1
  C  C185  1  0.50000000  0.73971304  0.94354714  1
  H  H186  1  0.50000000  0.23683896  0.70435919  1
  H  H187  1  0.50000000  0.76316341  0.70354490  1
  H  H188  1  0.50000000  0.23692153  0.79607370  1
  H  H189  1  0.50000000  0.76312230  0.79665748  1
  H  H190  1  0.50000000  0.23357876  0.54288151  1
  H  H191  1  0.50000000  0.23598697  0.86185171  1
  H  H192  1  0.50000000  0.76268198  0.53478338  1
  H  H193  1  0.50000000  0.76326364  0.87037272  1
  H  H194  1  0.50000000  0.23609618  0.63855254  1
  H  H195  1  0.50000000  0.23366296  0.95730433  1
  H  H196  1  0.50000000  0.76330633  0.62958266  1
  H  H197  1  0.50000000  0.76272902  0.96504231  1
  H  H198  1  0.50000000  0.28015283  0.00569207  1
  H  H199  1  0.50000000  0.73345856  0.28707110  1
  H  H200  1  0.50000000  0.73309547  0.04578852  1
  H  H201  1  0.50000000  0.73333641  0.38040627  1
  H  H202  1  0.50000000  0.29782730  0.04647967  1
  H  H203  1  0.50000000  0.29929551  0.36570616  1
  H  H204  1  0.50000000  0.29925608  0.13396907  1
  H  H205  1  0.50000000  0.29766042  0.45306010  1
  H  H206  1  0.50000000  0.73339219  0.11980760  1
  H  H207  1  0.50000000  0.73307226  0.45421829  1
  H  H208  1  0.50000000  0.28017134  0.49428711  1
  H  H209  1  0.50000000  0.73346890  0.21307076  1
  H  H210  1  0.50000000  0.29903673  0.20318279  1
  H  H211  1  0.50000000  0.29897938  0.29649434  1
