# generated using pymatgen
data_H20C93
_symmetry_space_group_name_H-M   'P 1'
_cell_length_a   10.00000000
_cell_length_b   41.10890000
_cell_length_c   25.96747872
_cell_angle_alpha   90.00000000
_cell_angle_beta   90.00000000
_cell_angle_gamma   90.00000000
_symmetry_Int_Tables_number   1
_chemical_formula_structural   H20C93
_chemical_formula_sum   'H40 C186'
_cell_volume   10674.94486080
_cell_formula_units_Z   2
loop_
 _symmetry_equiv_pos_site_id
 _symmetry_equiv_pos_as_xyz
  1  'x, y, z'
loop_
 _atom_site_type_symbol
 _atom_site_label
 _atom_site_symmetry_multiplicity
 _atom_site_fract_x
 _atom_site_fract_y
 _atom_site_fract_z
 _atom_site_occupancy
  C  C0  1  0.50000000  0.28630493  0.30564711  1
  C  C1  1  0.50000000  0.28904570  0.63915749  1
  C  C2  1  0.50000000  0.28828233  0.97107779  1
  C  C3  1  0.50000000  0.34629493  0.30587212  1
  C  C4  1  0.50000000  0.34921264  0.63901317  1
  C  C5  1  0.50000000  0.34850461  0.97203438  1
  C  C6  1  0.50000000  0.40578986  0.30576765  1
  C  C7  1  0.50000000  0.40918946  0.63862912  1
  C  C8  1  0.50000000  0.40863428  0.97247433  1
  C  C9  1  0.50000000  0.46548009  0.30411392  1
  C  C10  1  0.50000000  0.46910423  0.63928276  1
  C  C11  1  0.50000000  0.46939887  0.97280979  1
  C  C12  1  0.50000000  0.52927389  0.64139375  1
  C  C13  1  0.50000000  0.53103125  0.96440487  1
  C  C14  1  0.50000000  0.59068282  0.64139288  1
  C  C15  1  0.50000000  0.58936454  0.96470112  1
  C  C16  1  0.50000000  0.65775704  0.30430252  1
  C  C17  1  0.50000000  0.65050987  0.63942847  1
  C  C18  1  0.50000000  0.65096978  0.97349144  1
  C  C19  1  0.50000000  0.71771660  0.30626583  1
  C  C20  1  0.50000000  0.71036526  0.63900011  1
  C  C21  1  0.50000000  0.71161832  0.97122161  1
  C  C22  1  0.50000000  0.28767546  0.02709188  1
  C  C23  1  0.50000000  0.28663587  0.36194209  1
  C  C24  1  0.50000000  0.28917026  0.69499667  1
  C  C25  1  0.50000000  0.34778901  0.02737335  1
  C  C26  1  0.50000000  0.34665100  0.36123724  1
  C  C27  1  0.50000000  0.34929038  0.69443617  1
  C  C28  1  0.50000000  0.40767885  0.02777256  1
  C  C29  1  0.50000000  0.40616450  0.36098496  1
  C  C30  1  0.50000000  0.40917557  0.69417951  1
  C  C31  1  0.50000000  0.46807069  0.02915996  1
  C  C32  1  0.50000000  0.46547349  0.35927911  1
  C  C33  1  0.50000000  0.46906957  0.69469288  1
  C  C34  1  0.50000000  0.52936327  0.69608024  1
  C  C35  1  0.50000000  0.59049709  0.69596395  1
  C  C36  1  0.50000000  0.65304963  0.02908709  1
  C  C37  1  0.50000000  0.65718548  0.35883708  1
  C  C38  1  0.50000000  0.65050458  0.69453850  1
  C  C39  1  0.50000000  0.71343902  0.02660255  1
  C  C40  1  0.50000000  0.71677740  0.36209048  1
  C  C41  1  0.50000000  0.71045867  0.69475744  1
  C  C42  1  0.50000000  0.25826255  0.05534136  1
  C  C43  1  0.50000000  0.25774099  0.39138274  1
  C  C44  1  0.50000000  0.25993183  0.72337926  1
  C  C45  1  0.50000000  0.31736138  0.05506873  1
  C  C46  1  0.50000000  0.31672753  0.38939600  1
  C  C47  1  0.50000000  0.31920143  0.72231001  1
  C  C48  1  0.50000000  0.37743240  0.05527193  1
  C  C49  1  0.50000000  0.37660661  0.38892862  1
  C  C50  1  0.50000000  0.37918243  0.72210730  1
  C  C51  1  0.50000000  0.43752595  0.05599115  1
  C  C52  1  0.50000000  0.43642194  0.38841427  1
  C  C53  1  0.50000000  0.43913060  0.72224351  1
  C  C54  1  0.50000000  0.49576437  0.06157537  1
  C  C55  1  0.50000000  0.49484331  0.38591205  1
  C  C56  1  0.50000000  0.49906428  0.72261220  1
  C  C57  1  0.50000000  0.55985754  0.72267853  1
  C  C58  1  0.50000000  0.62560302  0.06268225  1
  C  C59  1  0.50000000  0.62731104  0.38510926  1
  C  C60  1  0.50000000  0.62063937  0.72255822  1
  C  C61  1  0.50000000  0.68414991  0.05556973  1
  C  C62  1  0.50000000  0.68616295  0.38870890  1
  C  C63  1  0.50000000  0.68056267  0.72235000  1
  C  C64  1  0.50000000  0.74357625  0.05392941  1
  C  C65  1  0.50000000  0.74526752  0.39308674  1
  C  C66  1  0.50000000  0.73974521  0.72341825  1
  C  C67  1  0.50000000  0.25768847  0.10862897  1
  C  C68  1  0.50000000  0.25831219  0.44465789  1
  C  C69  1  0.50000000  0.25992808  0.77654386  1
  C  C70  1  0.50000000  0.31668893  0.11060578  1
  C  C71  1  0.50000000  0.31741361  0.44492870  1
  C  C72  1  0.50000000  0.31919418  0.77765579  1
  C  C73  1  0.50000000  0.37659320  0.11106242  1
  C  C74  1  0.50000000  0.37746371  0.44472053  1
  C  C75  1  0.50000000  0.37919131  0.77786826  1
  C  C76  1  0.50000000  0.43640330  0.11156844  1
  C  C77  1  0.50000000  0.43755956  0.44400703  1
  C  C78  1  0.50000000  0.43910780  0.77780447  1
  C  C79  1  0.50000000  0.49483607  0.11409201  1
  C  C80  1  0.50000000  0.49577946  0.43842705  1
  C  C81  1  0.50000000  0.49905965  0.77741751  1
  C  C82  1  0.50000000  0.55985703  0.77734130  1
  C  C83  1  0.50000000  0.62733003  0.11495811  1
  C  C84  1  0.50000000  0.62557822  0.43736298  1
  C  C85  1  0.50000000  0.62064512  0.77745142  1
  C  C86  1  0.50000000  0.68617934  0.11132215  1
  C  C87  1  0.50000000  0.68412528  0.44444506  1
  C  C88  1  0.50000000  0.68056478  0.77764975  1
  C  C89  1  0.50000000  0.74528219  0.10696708  1
  C  C90  1  0.50000000  0.74354461  0.44611699  1
  C  C91  1  0.50000000  0.73974222  0.77653770  1
  C  C92  1  0.50000000  0.28659606  0.13807262  1
  C  C93  1  0.50000000  0.28772801  0.47288579  1
  C  C94  1  0.50000000  0.28915842  0.80496284  1
  C  C95  1  0.50000000  0.34663098  0.13874876  1
  C  C96  1  0.50000000  0.34783092  0.47263142  1
  C  C97  1  0.50000000  0.34929035  0.80551655  1
  C  C98  1  0.50000000  0.40615395  0.13902012  1
  C  C99  1  0.50000000  0.40771244  0.47222179  1
  C  C100  1  0.50000000  0.40915022  0.80576474  1
  C  C101  1  0.50000000  0.46545379  0.14070383  1
  C  C102  1  0.50000000  0.46809797  0.47086836  1
  C  C103  1  0.50000000  0.46904960  0.80532408  1
  C  C104  1  0.50000000  0.52936523  0.80394630  1
  C  C105  1  0.50000000  0.59049900  0.80403986  1
  C  C106  1  0.50000000  0.65720548  0.14120232  1
  C  C107  1  0.50000000  0.65303741  0.47093724  1
  C  C108  1  0.50000000  0.65051969  0.80548525  1
  C  C109  1  0.50000000  0.71678599  0.13794991  1
  C  C110  1  0.50000000  0.71339609  0.47341691  1
  C  C111  1  0.50000000  0.71046784  0.80520829  1
  C  C112  1  0.50000000  0.28629662  0.19437947  1
  C  C113  1  0.50000000  0.28833202  0.52887521  1
  C  C114  1  0.50000000  0.28902002  0.86080292  1
  C  C115  1  0.50000000  0.34628631  0.19412636  1
  C  C116  1  0.50000000  0.34854141  0.52795817  1
  C  C117  1  0.50000000  0.34919692  0.86095316  1
  C  C118  1  0.50000000  0.40578337  0.19423856  1
  C  C119  1  0.50000000  0.40866932  0.52752236  1
  C  C120  1  0.50000000  0.40918640  0.86126306  1
  C  C121  1  0.50000000  0.46546610  0.19587712  1
  C  C122  1  0.50000000  0.46941952  0.52722322  1
  C  C123  1  0.50000000  0.46908815  0.86072897  1
  C  C124  1  0.50000000  0.53103416  0.53557960  1
  C  C125  1  0.50000000  0.52927709  0.85863032  1
  C  C126  1  0.50000000  0.58935360  0.53528204  1
  C  C127  1  0.50000000  0.59070077  0.85860870  1
  C  C128  1  0.50000000  0.65777135  0.19573762  1
  C  C129  1  0.50000000  0.65098636  0.52654714  1
  C  C130  1  0.50000000  0.65053538  0.86059984  1
  C  C131  1  0.50000000  0.71771898  0.19377766  1
  C  C132  1  0.50000000  0.71155446  0.52879315  1
  C  C133  1  0.50000000  0.71037290  0.86100851  1
  C  C134  1  0.50000000  0.25711255  0.22331885  1
  C  C135  1  0.50000000  0.25933683  0.55788116  1
  C  C136  1  0.50000000  0.25963885  0.88889917  1
  C  C137  1  0.50000000  0.31613862  0.22219003  1
  C  C138  1  0.50000000  0.31851105  0.55606985  1
  C  C139  1  0.50000000  0.31886207  0.88850260  1
  C  C140  1  0.50000000  0.37599853  0.22204696  1
  C  C141  1  0.50000000  0.37873458  0.55538485  1
  C  C142  1  0.50000000  0.37898713  0.88883138  1
  C  C143  1  0.50000000  0.43558295  0.22255018  1
  C  C144  1  0.50000000  0.43945091  0.55490805  1
  C  C145  1  0.50000000  0.43926956  0.88909482  1
  C  C146  1  0.50000000  0.49493465  0.22359041  1
  C  C147  1  0.50000000  0.49979986  0.55683783  1
  C  C148  1  0.50000000  0.49935694  0.88747323  1
  C  C149  1  0.50000000  0.56005374  0.56302607  1
  C  C150  1  0.50000000  0.55998294  0.88334161  1
  C  C151  1  0.50000000  0.62817823  0.22380402  1
  C  C152  1  0.50000000  0.62031599  0.55638800  1
  C  C153  1  0.50000000  0.62060295  0.88752850  1
  C  C154  1  0.50000000  0.68802703  0.22238223  1
  C  C155  1  0.50000000  0.68084103  0.55529748  1
  C  C156  1  0.50000000  0.68070812  0.88891469  1
  C  C157  1  0.50000000  0.74697046  0.22334345  1
  C  C158  1  0.50000000  0.74052009  0.55842663  1
  C  C159  1  0.50000000  0.74009068  0.88879960  1
  C  C160  1  0.50000000  0.25711741  0.27669931  1
  C  C161  1  0.50000000  0.25968054  0.61103370  1
  C  C162  1  0.50000000  0.25928927  0.94205690  1
  C  C163  1  0.50000000  0.31614179  0.27782946  1
  C  C164  1  0.50000000  0.31888726  0.61145645  1
  C  C165  1  0.50000000  0.31847544  0.94390585  1
  C  C166  1  0.50000000  0.37600006  0.27795646  1
  C  C167  1  0.50000000  0.37898746  0.61113057  1
  C  C168  1  0.50000000  0.37870862  0.94458814  1
  C  C169  1  0.50000000  0.43559205  0.27745501  1
  C  C170  1  0.50000000  0.43927631  0.61093154  1
  C  C171  1  0.50000000  0.43942231  0.94512070  1
  C  C172  1  0.50000000  0.49494574  0.27636781  1
  C  C173  1  0.50000000  0.49938966  0.61254215  1
  C  C174  1  0.50000000  0.49978523  0.94317214  1
  C  C175  1  0.50000000  0.55994968  0.61666285  1
  C  C176  1  0.50000000  0.56005862  0.93696948  1
  C  C177  1  0.50000000  0.62817406  0.27621134  1
  C  C178  1  0.50000000  0.62058812  0.61247195  1
  C  C179  1  0.50000000  0.62032016  0.94360170  1
  C  C180  1  0.50000000  0.68802162  0.27766447  1
  C  C181  1  0.50000000  0.68068751  0.61112727  1
  C  C182  1  0.50000000  0.68086703  0.94475262  1
  C  C183  1  0.50000000  0.74696757  0.27669014  1
  C  C184  1  0.50000000  0.74006562  0.61116523  1
  C  C185  1  0.50000000  0.74057028  0.94153955  1
  H  H186  1  0.50000000  0.23494434  0.03514636  1
  H  H187  1  0.50000000  0.23399206  0.37240540  1
  H  H188  1  0.50000000  0.23650007  0.70349328  1
  H  H189  1  0.50000000  0.76646687  0.03250035  1
  H  H190  1  0.50000000  0.76930364  0.37491353  1
  H  H191  1  0.50000000  0.76325903  0.70378173  1
  H  H192  1  0.50000000  0.23394622  0.12764730  1
  H  H193  1  0.50000000  0.23498295  0.46481357  1
  H  H194  1  0.50000000  0.23650179  0.79643537  1
  H  H195  1  0.50000000  0.76929466  0.12521599  1
  H  H196  1  0.50000000  0.76645579  0.46750128  1
  H  H197  1  0.50000000  0.76323213  0.79623751  1
  H  H198  1  0.50000000  0.23361742  0.20352577  1
  H  H199  1  0.50000000  0.23575129  0.53852646  1
  H  H200  1  0.50000000  0.23630381  0.86875767  1
  H  H201  1  0.50000000  0.77046415  0.20350183  1
  H  H202  1  0.50000000  0.76410619  0.53914678  1
  H  H203  1  0.50000000  0.76333762  0.86848706  1
  H  H204  1  0.50000000  0.23361565  0.29646360  1
  H  H205  1  0.50000000  0.23634913  0.63117365  1
  H  H206  1  0.50000000  0.23570961  0.96145004  1
  H  H207  1  0.50000000  0.77046569  0.29651873  1
  H  H208  1  0.50000000  0.76333722  0.63143487  1
  H  H209  1  0.50000000  0.76415993  0.96084322  1
  H  H210  1  0.50000000  0.53613701  0.00470091  1
  H  H211  1  0.50000000  0.58469696  0.00522680  1
  H  H212  1  0.50000000  0.52018881  0.04775483  1
  H  H213  1  0.50000000  0.51799959  0.36547196  1
  H  H214  1  0.50000000  0.60096493  0.04941473  1
  H  H215  1  0.50000000  0.60436100  0.36404055  1
  H  H216  1  0.50000000  0.51800230  0.13450794  1
  H  H217  1  0.50000000  0.52021151  0.45220192  1
  H  H218  1  0.50000000  0.60437719  0.13598321  1
  H  H219  1  0.50000000  0.60094916  0.45067553  1
  H  H220  1  0.50000000  0.53612223  0.49527818  1
  H  H221  1  0.50000000  0.58462947  0.49476895  1
  H  H222  1  0.50000000  0.51823547  0.20359038  1
  H  H223  1  0.50000000  0.60477898  0.20403268  1
  H  H224  1  0.50000000  0.51826306  0.29637777  1
  H  H225  1  0.50000000  0.60476728  0.29594298  1
