# generated using pymatgen
data_H20C93
_symmetry_space_group_name_H-M   'P 1'
_cell_length_a   10.00000000
_cell_length_b   41.10890000
_cell_length_c   25.96247393
_cell_angle_alpha   90.00000000
_cell_angle_beta   90.00000000
_cell_angle_gamma   90.00000000
_symmetry_Int_Tables_number   1
_chemical_formula_structural   H20C93
_chemical_formula_sum   'H40 C186'
_cell_volume   10672.88744600
_cell_formula_units_Z   2
loop_
 _symmetry_equiv_pos_site_id
 _symmetry_equiv_pos_as_xyz
  1  'x, y, z'
loop_
 _atom_site_type_symbol
 _atom_site_label
 _atom_site_symmetry_multiplicity
 _atom_site_fract_x
 _atom_site_fract_y
 _atom_site_fract_z
 _atom_site_occupancy
  C  C0  1  0.50000000  0.28520907  0.30593776  1
  C  C1  1  0.50000000  0.28917131  0.63907109  1
  C  C2  1  0.50000000  0.28841377  0.97109490  1
  C  C3  1  0.50000000  0.34504678  0.30587826  1
  C  C4  1  0.50000000  0.34943059  0.63878061  1
  C  C5  1  0.50000000  0.34872756  0.97247331  1
  C  C6  1  0.50000000  0.40472806  0.30416802  1
  C  C7  1  0.50000000  0.40918456  0.63937028  1
  C  C8  1  0.50000000  0.40928826  0.97314534  1
  C  C9  1  0.50000000  0.46926935  0.64144621  1
  C  C10  1  0.50000000  0.47084640  0.96439023  1
  C  C11  1  0.50000000  0.53073067  0.64144621  1
  C  C12  1  0.50000000  0.52915361  0.96439023  1
  C  C13  1  0.50000000  0.59527196  0.30416802  1
  C  C14  1  0.50000000  0.59081546  0.63937027  1
  C  C15  1  0.50000000  0.59071176  0.97314535  1
  C  C16  1  0.50000000  0.65495324  0.30587826  1
  C  C17  1  0.50000000  0.65056943  0.63878061  1
  C  C18  1  0.50000000  0.65127246  0.97247331  1
  C  C19  1  0.50000000  0.71479095  0.30593776  1
  C  C20  1  0.50000000  0.71082871  0.63907109  1
  C  C21  1  0.50000000  0.71158625  0.97109490  1
  C  C22  1  0.50000000  0.28749947  0.02683714  1
  C  C23  1  0.50000000  0.28570256  0.36207026  1
  C  C24  1  0.50000000  0.28922945  0.69488779  1
  C  C25  1  0.50000000  0.34759281  0.02755391  1
  C  C26  1  0.50000000  0.34557940  0.36092135  1
  C  C27  1  0.50000000  0.34937915  0.69424752  1
  C  C28  1  0.50000000  0.40787618  0.02922865  1
  C  C29  1  0.50000000  0.40486826  0.35905951  1
  C  C30  1  0.50000000  0.40914606  0.69461739  1
  C  C31  1  0.50000000  0.46937913  0.69606536  1
  C  C32  1  0.50000000  0.53062089  0.69606536  1
  C  C33  1  0.50000000  0.59212384  0.02922865  1
  C  C34  1  0.50000000  0.59513176  0.35905951  1
  C  C35  1  0.50000000  0.59085396  0.69461739  1
  C  C36  1  0.50000000  0.65240721  0.02755391  1
  C  C37  1  0.50000000  0.65442062  0.36092135  1
  C  C38  1  0.50000000  0.65062086  0.69424752  1
  C  C39  1  0.50000000  0.71250055  0.02683714  1
  C  C40  1  0.50000000  0.71429746  0.36207026  1
  C  C41  1  0.50000000  0.71077057  0.69488779  1
  C  C42  1  0.50000000  0.25781067  0.05485089  1
  C  C43  1  0.50000000  0.25686266  0.39201766  1
  C  C44  1  0.50000000  0.25995322  0.72337795  1
  C  C45  1  0.50000000  0.31702328  0.05505940  1
  C  C46  1  0.50000000  0.31590425  0.38937242  1
  C  C47  1  0.50000000  0.31925499  0.72223708  1
  C  C48  1  0.50000000  0.37722676  0.05599901  1
  C  C49  1  0.50000000  0.37585170  0.38829568  1
  C  C50  1  0.50000000  0.37917501  0.72222225  1
  C  C51  1  0.50000000  0.43561636  0.06203856  1
  C  C52  1  0.50000000  0.43446880  0.38561549  1
  C  C53  1  0.50000000  0.43916136  0.72258888  1
  C  C54  1  0.50000000  0.50000001  0.72269647  1
  C  C55  1  0.50000000  0.56438366  0.06203856  1
  C  C56  1  0.50000000  0.56553121  0.38561550  1
  C  C57  1  0.50000000  0.56083866  0.72258888  1
  C  C58  1  0.50000000  0.62277326  0.05599901  1
  C  C59  1  0.50000000  0.62414831  0.38829568  1
  C  C60  1  0.50000000  0.62082501  0.72222225  1
  C  C61  1  0.50000000  0.68297673  0.05505940  1
  C  C62  1  0.50000000  0.68409577  0.38937242  1
  C  C63  1  0.50000000  0.68074503  0.72223708  1
  C  C64  1  0.50000000  0.74218935  0.05485089  1
  C  C65  1  0.50000000  0.74313736  0.39201766  1
  C  C66  1  0.50000000  0.74004679  0.72337796  1
  C  C67  1  0.50000000  0.25685228  0.10798721  1
  C  C68  1  0.50000000  0.25782383  0.44514755  1
  C  C69  1  0.50000000  0.25994638  0.77655547  1
  C  C70  1  0.50000000  0.31588737  0.11063709  1
  C  C71  1  0.50000000  0.31703806  0.44495562  1
  C  C72  1  0.50000000  0.31924820  0.77774253  1
  C  C73  1  0.50000000  0.37584261  0.11171604  1
  C  C74  1  0.50000000  0.37724251  0.44400400  1
  C  C75  1  0.50000000  0.37917313  0.77779628  1
  C  C76  1  0.50000000  0.43446763  0.11438692  1
  C  C77  1  0.50000000  0.43562192  0.43796269  1
  C  C78  1  0.50000000  0.43916453  0.77741989  1
  C  C79  1  0.50000000  0.50000001  0.77730671  1
  C  C80  1  0.50000000  0.56553239  0.11438692  1
  C  C81  1  0.50000000  0.56437810  0.43796269  1
  C  C82  1  0.50000000  0.56083548  0.77741989  1
  C  C83  1  0.50000000  0.62415741  0.11171604  1
  C  C84  1  0.50000000  0.62275751  0.44400400  1
  C  C85  1  0.50000000  0.62082688  0.77779628  1
  C  C86  1  0.50000000  0.68411265  0.11063708  1
  C  C87  1  0.50000000  0.68296196  0.44495562  1
  C  C88  1  0.50000000  0.68075182  0.77774253  1
  C  C89  1  0.50000000  0.74314773  0.10798722  1
  C  C90  1  0.50000000  0.74217619  0.44514755  1
  C  C91  1  0.50000000  0.74005363  0.77655548  1
  C  C92  1  0.50000000  0.28569119  0.13793982  1
  C  C93  1  0.50000000  0.28751168  0.47314030  1
  C  C94  1  0.50000000  0.28921569  0.80507319  1
  C  C95  1  0.50000000  0.34556740  0.13908443  1
  C  C96  1  0.50000000  0.34760284  0.47243635  1
  C  C97  1  0.50000000  0.34936989  0.80576500  1
  C  C98  1  0.50000000  0.40486575  0.14094871  1
  C  C99  1  0.50000000  0.40789047  0.47078174  1
  C  C100  1  0.50000000  0.40915315  0.80539827  1
  C  C101  1  0.50000000  0.46937819  0.80394415  1
  C  C102  1  0.50000000  0.53062183  0.80394415  1
  C  C103  1  0.50000000  0.59513428  0.14094871  1
  C  C104  1  0.50000000  0.59210955  0.47078174  1
  C  C105  1  0.50000000  0.59084687  0.80539826  1
  C  C106  1  0.50000000  0.65443262  0.13908443  1
  C  C107  1  0.50000000  0.65239718  0.47243635  1
  C  C108  1  0.50000000  0.65063013  0.80576501  1
  C  C109  1  0.50000000  0.71430882  0.13793982  1
  C  C110  1  0.50000000  0.71248834  0.47314030  1
  C  C111  1  0.50000000  0.71078432  0.80507319  1
  C  C112  1  0.50000000  0.28520399  0.19410007  1
  C  C113  1  0.50000000  0.28842705  0.52888653  1
  C  C114  1  0.50000000  0.28915387  0.86089497  1
  C  C115  1  0.50000000  0.34504057  0.19412766  1
  C  C116  1  0.50000000  0.34873290  0.52751523  1
  C  C117  1  0.50000000  0.34942337  0.86120425  1
  C  C118  1  0.50000000  0.40472833  0.19583835  1
  C  C119  1  0.50000000  0.40929408  0.52686487  1
  C  C120  1  0.50000000  0.40918429  0.86064575  1
  C  C121  1  0.50000000  0.47084821  0.53562641  1
  C  C122  1  0.50000000  0.46927276  0.85856739  1
  C  C123  1  0.50000000  0.52915180  0.53562641  1
  C  C124  1  0.50000000  0.53072726  0.85856739  1
  C  C125  1  0.50000000  0.59527169  0.19583835  1
  C  C126  1  0.50000000  0.59070593  0.52686487  1
  C  C127  1  0.50000000  0.59081572  0.86064575  1
  C  C128  1  0.50000000  0.65495945  0.19412766  1
  C  C129  1  0.50000000  0.65126712  0.52751523  1
  C  C130  1  0.50000000  0.65057664  0.86120425  1
  C  C131  1  0.50000000  0.71479603  0.19410007  1
  C  C132  1  0.50000000  0.71157297  0.52888653  1
  C  C133  1  0.50000000  0.71084614  0.86089497  1
  C  C134  1  0.50000000  0.25598282  0.22338712  1
  C  C135  1  0.50000000  0.25935296  0.55797584  1
  C  C136  1  0.50000000  0.25966084  0.88899907  1
  C  C137  1  0.50000000  0.31497062  0.22212525  1
  C  C138  1  0.50000000  0.31871890  0.55587902  1
  C  C139  1  0.50000000  0.31897265  0.88864701  1
  C  C140  1  0.50000000  0.37477312  0.22249548  1
  C  C141  1  0.50000000  0.37939930  0.55474908  1
  C  C142  1  0.50000000  0.37927904  0.88906588  1
  C  C143  1  0.50000000  0.43431641  0.22370971  1
  C  C144  1  0.50000000  0.43980232  0.55680036  1
  C  C145  1  0.50000000  0.43943587  0.88738770  1
  C  C146  1  0.50000000  0.50000001  0.56319746  1
  C  C147  1  0.50000000  0.50000001  0.88325133  1
  C  C148  1  0.50000000  0.56568360  0.22370971  1
  C  C149  1  0.50000000  0.56019770  0.55680036  1
  C  C150  1  0.50000000  0.56056415  0.88738770  1
  C  C151  1  0.50000000  0.62522689  0.22249548  1
  C  C152  1  0.50000000  0.62060072  0.55474908  1
  C  C153  1  0.50000000  0.62072097  0.88906588  1
  C  C154  1  0.50000000  0.68502940  0.22212525  1
  C  C155  1  0.50000000  0.68128112  0.55587902  1
  C  C156  1  0.50000000  0.68102737  0.88864701  1
  C  C157  1  0.50000000  0.74401720  0.22338712  1
  C  C158  1  0.50000000  0.74064705  0.55797584  1
  C  C159  1  0.50000000  0.74033918  0.88899907  1
  C  C160  1  0.50000000  0.25598054  0.27666638  1
  C  C161  1  0.50000000  0.25968235  0.61096114  1
  C  C162  1  0.50000000  0.25934741  0.94199168  1
  C  C163  1  0.50000000  0.31497228  0.27790050  1
  C  C164  1  0.50000000  0.31898932  0.61132942  1
  C  C165  1  0.50000000  0.31870732  0.94410687  1
  C  C166  1  0.50000000  0.37477610  0.27751278  1
  C  C167  1  0.50000000  0.37928858  0.61094046  1
  C  C168  1  0.50000000  0.37939609  0.94525062  1
  C  C169  1  0.50000000  0.43431617  0.27630658  1
  C  C170  1  0.50000000  0.43943399  0.61262204  1
  C  C171  1  0.50000000  0.43980042  0.94321125  1
  C  C172  1  0.50000000  0.50000001  0.61676474  1
  C  C173  1  0.50000000  0.50000001  0.93682494  1
  C  C174  1  0.50000000  0.56568385  0.27630658  1
  C  C175  1  0.50000000  0.56056603  0.61262204  1
  C  C176  1  0.50000000  0.56019959  0.94321125  1
  C  C177  1  0.50000000  0.62522391  0.27751278  1
  C  C178  1  0.50000000  0.62071144  0.61094046  1
  C  C179  1  0.50000000  0.62060393  0.94525062  1
  C  C180  1  0.50000000  0.68502774  0.27790050  1
  C  C181  1  0.50000000  0.68101070  0.61132943  1
  C  C182  1  0.50000000  0.68129270  0.94410687  1
  C  C183  1  0.50000000  0.74401947  0.27666638  1
  C  C184  1  0.50000000  0.74031767  0.61096114  1
  C  C185  1  0.50000000  0.74065261  0.94199168  1
  H  H186  1  0.50000000  0.23462772  0.03425347  1
  H  H187  1  0.50000000  0.23302274  0.37330711  1
  H  H188  1  0.50000000  0.23649968  0.70348898  1
  H  H189  1  0.50000000  0.76537230  0.03425347  1
  H  H190  1  0.50000000  0.76697728  0.37330711  1
  H  H191  1  0.50000000  0.76350033  0.70348898  1
  H  H192  1  0.50000000  0.23301258  0.12668875  1
  H  H193  1  0.50000000  0.23466507  0.46580373  1
  H  H194  1  0.50000000  0.23649243  0.79642992  1
  H  H195  1  0.50000000  0.76698743  0.12668875  1
  H  H196  1  0.50000000  0.76533495  0.46580372  1
  H  H197  1  0.50000000  0.76350758  0.79642992  1
  H  H198  1  0.50000000  0.23253457  0.20350765  1
  H  H199  1  0.50000000  0.23582684  0.53844463  1
  H  H200  1  0.50000000  0.23634959  0.86877131  1
  H  H201  1  0.50000000  0.76746544  0.20350765  1
  H  H202  1  0.50000000  0.76417318  0.53844463  1
  H  H203  1  0.50000000  0.76365043  0.86877131  1
  H  H204  1  0.50000000  0.23252303  0.29652705  1
  H  H205  1  0.50000000  0.23637971  0.63121184  1
  H  H206  1  0.50000000  0.23580283  0.96148054  1
  H  H207  1  0.50000000  0.76747699  0.29652705  1
  H  H208  1  0.50000000  0.76362031  0.63121184  1
  H  H209  1  0.50000000  0.76419719  0.96148054  1
  H  H210  1  0.50000000  0.47574100  0.00476559  1
  H  H211  1  0.50000000  0.52425901  0.00476559  1
  H  H212  1  0.50000000  0.46010835  0.04839003  1
  H  H213  1  0.50000000  0.45753907  0.36489195  1
  H  H214  1  0.50000000  0.53989167  0.04839002  1
  H  H215  1  0.50000000  0.54246095  0.36489196  1
  H  H216  1  0.50000000  0.45753338  0.13513038  1
  H  H217  1  0.50000000  0.46012005  0.45157916  1
  H  H218  1  0.50000000  0.54246664  0.13513037  1
  H  H219  1  0.50000000  0.53987997  0.45157917  1
  H  H220  1  0.50000000  0.47574506  0.49524830  1
  H  H221  1  0.50000000  0.52425495  0.49524830  1
  H  H222  1  0.50000000  0.45763821  0.20373931  1
  H  H223  1  0.50000000  0.54236181  0.20373931  1
  H  H224  1  0.50000000  0.45763507  0.29628246  1
  H  H225  1  0.50000000  0.54236495  0.29628247  1
