# generated using pymatgen
data_H13C93
_symmetry_space_group_name_H-M   'P 1'
_cell_length_a   10.00000000
_cell_length_b   41.10890000
_cell_length_c   25.76784295
_cell_angle_alpha   90.00000000
_cell_angle_beta   90.00000000
_cell_angle_gamma   90.00000000
_symmetry_Int_Tables_number   1
_chemical_formula_structural   H13C93
_chemical_formula_sum   'H26 C186'
_cell_volume   10592.87679006
_cell_formula_units_Z   2
loop_
 _symmetry_equiv_pos_site_id
 _symmetry_equiv_pos_as_xyz
  1  'x, y, z'
loop_
 _atom_site_type_symbol
 _atom_site_label
 _atom_site_symmetry_multiplicity
 _atom_site_fract_x
 _atom_site_fract_y
 _atom_site_fract_z
 _atom_site_occupancy
  C  C0  1  0.50000000  0.28980386  0.30533828  1
  C  C1  1  0.50000000  0.28978083  0.63868834  1
  C  C2  1  0.50000000  0.28979426  0.97201780  1
  C  C3  1  0.50000000  0.34997552  0.30562935  1
  C  C4  1  0.50000000  0.34995968  0.63898623  1
  C  C5  1  0.50000000  0.34995453  0.97230816  1
  C  C6  1  0.50000000  0.40995998  0.30557253  1
  C  C7  1  0.50000000  0.40991715  0.63893201  1
  C  C8  1  0.50000000  0.40990539  0.97222226  1
  C  C9  1  0.50000000  0.47002828  0.30555929  1
  C  C10  1  0.50000000  0.46996697  0.63892276  1
  C  C11  1  0.50000000  0.46994220  0.97214005  1
  C  C12  1  0.50000000  0.53010916  0.30551618  1
  C  C13  1  0.50000000  0.53006919  0.63894410  1
  C  C14  1  0.50000000  0.52999124  0.97204418  1
  C  C15  1  0.50000000  0.59021200  0.30561844  1
  C  C16  1  0.50000000  0.59020126  0.63906951  1
  C  C17  1  0.50000000  0.59001843  0.97203963  1
  C  C18  1  0.50000000  0.64949139  0.30675680  1
  C  C19  1  0.50000000  0.65031112  0.63895405  1
  C  C20  1  0.50000000  0.64986055  0.97230222  1
  C  C21  1  0.50000000  0.71080734  0.63830015  1
  C  C22  1  0.50000000  0.71062962  0.97097873  1
  C  C23  1  0.50000000  0.28979827  0.02799286  1
  C  C24  1  0.50000000  0.28979621  0.36130682  1
  C  C25  1  0.50000000  0.28978353  0.69465757  1
  C  C26  1  0.50000000  0.34995568  0.02769209  1
  C  C27  1  0.50000000  0.34996414  0.36102006  1
  C  C28  1  0.50000000  0.34996865  0.69436732  1
  C  C29  1  0.50000000  0.40990409  0.02774261  1
  C  C30  1  0.50000000  0.40994137  0.36109615  1
  C  C31  1  0.50000000  0.40992937  0.69444256  1
  C  C32  1  0.50000000  0.46992847  0.02772436  1
  C  C33  1  0.50000000  0.47000828  0.36115970  1
  C  C34  1  0.50000000  0.46998770  0.69448944  1
  C  C35  1  0.50000000  0.52994461  0.02767425  1
  C  C36  1  0.50000000  0.53009148  0.36125765  1
  C  C37  1  0.50000000  0.53010875  0.69452618  1
  C  C38  1  0.50000000  0.58986567  0.02746682  1
  C  C39  1  0.50000000  0.59018595  0.36123849  1
  C  C40  1  0.50000000  0.59025349  0.69452351  1
  C  C41  1  0.50000000  0.64890023  0.02643618  1
  C  C42  1  0.50000000  0.64941830  0.36025077  1
  C  C43  1  0.50000000  0.65032454  0.69430645  1
  C  C44  1  0.50000000  0.71062991  0.69464819  1
  C  C45  1  0.50000000  0.26047087  0.05659907  1
  C  C46  1  0.50000000  0.26048096  0.38993865  1
  C  C47  1  0.50000000  0.26045835  0.72329103  1
  C  C48  1  0.50000000  0.31979358  0.05554812  1
  C  C49  1  0.50000000  0.31979270  0.38886570  1
  C  C50  1  0.50000000  0.31979095  0.72220603  1
  C  C51  1  0.50000000  0.37991616  0.05549411  1
  C  C52  1  0.50000000  0.37992545  0.38882124  1
  C  C53  1  0.50000000  0.37993665  0.72216527  1
  C  C54  1  0.50000000  0.43997041  0.05553434  1
  C  C55  1  0.50000000  0.44000448  0.38890960  1
  C  C56  1  0.50000000  0.43999163  0.72224289  1
  C  C57  1  0.50000000  0.49996862  0.05549852  1
  C  C58  1  0.50000000  0.50003390  0.38899587  1
  C  C59  1  0.50000000  0.50005279  0.72225024  1
  C  C60  1  0.50000000  0.55987369  0.05543897  1
  C  C61  1  0.50000000  0.55996908  0.38906605  1
  C  C62  1  0.50000000  0.56012818  0.72226780  1
  C  C63  1  0.50000000  0.61996564  0.05485592  1
  C  C64  1  0.50000000  0.62012092  0.38886155  1
  C  C65  1  0.50000000  0.62033246  0.72212732  1
  C  C66  1  0.50000000  0.68062208  0.72218937  1
  C  C67  1  0.50000000  0.73985784  0.72323412  1
  C  C68  1  0.50000000  0.26046461  0.11005327  1
  C  C69  1  0.50000000  0.26048641  0.44337644  1
  C  C70  1  0.50000000  0.26045666  0.77674304  1
  C  C71  1  0.50000000  0.31979258  0.11113218  1
  C  C72  1  0.50000000  0.31979359  0.44444972  1
  C  C73  1  0.50000000  0.31978980  0.77779764  1
  C  C74  1  0.50000000  0.37992583  0.11117997  1
  C  C75  1  0.50000000  0.37991656  0.44450383  1
  C  C76  1  0.50000000  0.37993625  0.77783080  1
  C  C77  1  0.50000000  0.44000446  0.11109346  1
  C  C78  1  0.50000000  0.43997100  0.44446484  1
  C  C79  1  0.50000000  0.43999161  0.77775648  1
  C  C80  1  0.50000000  0.50003312  0.11100697  1
  C  C81  1  0.50000000  0.49996866  0.44450001  1
  C  C82  1  0.50000000  0.50005114  0.77774842  1
  C  C83  1  0.50000000  0.55996782  0.11093934  1
  C  C84  1  0.50000000  0.55987338  0.44456386  1
  C  C85  1  0.50000000  0.56012493  0.77773380  1
  C  C86  1  0.50000000  0.62012197  0.11114971  1
  C  C87  1  0.50000000  0.61995987  0.44515554  1
  C  C88  1  0.50000000  0.62033298  0.77787868  1
  C  C89  1  0.50000000  0.68062543  0.77779741  1
  C  C90  1  0.50000000  0.73985890  0.77677567  1
  C  C91  1  0.50000000  0.28979235  0.13866675  1
  C  C92  1  0.50000000  0.28979953  0.47200934  1
  C  C93  1  0.50000000  0.28978387  0.80536498  1
  C  C94  1  0.50000000  0.34996442  0.13898164  1
  C  C95  1  0.50000000  0.34995605  0.47230502  1
  C  C96  1  0.50000000  0.34996836  0.80563297  1
  C  C97  1  0.50000000  0.40994162  0.13890444  1
  C  C98  1  0.50000000  0.40990477  0.47225464  1
  C  C99  1  0.50000000  0.40992934  0.80555809  1
  C  C100  1  0.50000000  0.47000767  0.13884025  1
  C  C101  1  0.50000000  0.46992907  0.47227420  1
  C  C102  1  0.50000000  0.46998756  0.80551196  1
  C  C103  1  0.50000000  0.53009050  0.13874240  1
  C  C104  1  0.50000000  0.52994444  0.47232515  1
  C  C105  1  0.50000000  0.53010380  0.80547660  1
  C  C106  1  0.50000000  0.59018546  0.13876577  1
  C  C107  1  0.50000000  0.58986364  0.47254100  1
  C  C108  1  0.50000000  0.59024892  0.80548767  1
  C  C109  1  0.50000000  0.64940793  0.13978883  1
  C  C110  1  0.50000000  0.64889978  0.47356426  1
  C  C111  1  0.50000000  0.65032896  0.80569218  1
  C  C112  1  0.50000000  0.71062487  0.80535425  1
  C  C113  1  0.50000000  0.28980432  0.19463846  1
  C  C114  1  0.50000000  0.28979529  0.52797964  1
  C  C115  1  0.50000000  0.28977688  0.86133729  1
  C  C116  1  0.50000000  0.34997531  0.19436928  1
  C  C117  1  0.50000000  0.34995502  0.52769428  1
  C  C118  1  0.50000000  0.34995977  0.86101096  1
  C  C119  1  0.50000000  0.40996008  0.19442617  1
  C  C120  1  0.50000000  0.40990648  0.52778000  1
  C  C121  1  0.50000000  0.40991678  0.86106663  1
  C  C122  1  0.50000000  0.47002849  0.19443893  1
  C  C123  1  0.50000000  0.46994377  0.52786248  1
  C  C124  1  0.50000000  0.46996473  0.86107681  1
  C  C125  1  0.50000000  0.53010810  0.19448227  1
  C  C126  1  0.50000000  0.52999356  0.52796092  1
  C  C127  1  0.50000000  0.53006399  0.86105727  1
  C  C128  1  0.50000000  0.59021383  0.19438829  1
  C  C129  1  0.50000000  0.59002213  0.52797142  1
  C  C130  1  0.50000000  0.59019357  0.86094038  1
  C  C131  1  0.50000000  0.64946984  0.19332559  1
  C  C132  1  0.50000000  0.64987078  0.52770540  1
  C  C133  1  0.50000000  0.65031149  0.86104920  1
  C  C134  1  0.50000000  0.71062999  0.52905720  1
  C  C135  1  0.50000000  0.71078854  0.86170824  1
  C  C136  1  0.50000000  0.26048939  0.22326058  1
  C  C137  1  0.50000000  0.26047619  0.55660651  1
  C  C138  1  0.50000000  0.26044630  0.88996128  1
  C  C139  1  0.50000000  0.31980070  0.22220696  1
  C  C140  1  0.50000000  0.31978815  0.55554200  1
  C  C141  1  0.50000000  0.31978595  0.88886886  1
  C  C142  1  0.50000000  0.37994678  0.22215839  1
  C  C143  1  0.50000000  0.37991309  0.55551074  1
  C  C144  1  0.50000000  0.37992347  0.88880903  1
  C  C145  1  0.50000000  0.44004877  0.22220775  1
  C  C146  1  0.50000000  0.43996031  0.55561031  1
  C  C147  1  0.50000000  0.43997536  0.88885796  1
  C  C148  1  0.50000000  0.50010222  0.22223467  1
  C  C149  1  0.50000000  0.49997288  0.55568773  1
  C  C150  1  0.50000000  0.50001400  0.88882338  1
  C  C151  1  0.50000000  0.56005369  0.22227495  1
  C  C152  1  0.50000000  0.55993696  0.55578634  1
  C  C153  1  0.50000000  0.56004901  0.88878004  1
  C  C154  1  0.50000000  0.62020230  0.22193720  1
  C  C155  1  0.50000000  0.62001369  0.55580175  1
  C  C156  1  0.50000000  0.62018817  0.88858295  1
  C  C157  1  0.50000000  0.68069935  0.55548763  1
  C  C158  1  0.50000000  0.68058367  0.88912610  1
  C  C159  1  0.50000000  0.73998960  0.55593888  1
  C  C160  1  0.50000000  0.74006625  0.89004071  1
  C  C161  1  0.50000000  0.26049099  0.27670434  1
  C  C162  1  0.50000000  0.26046237  0.61004636  1
  C  C163  1  0.50000000  0.26046118  0.94341740  1
  C  C164  1  0.50000000  0.31980175  0.27778850  1
  C  C165  1  0.50000000  0.31978621  0.61113225  1
  C  C166  1  0.50000000  0.31978815  0.94445940  1
  C  C167  1  0.50000000  0.37994714  0.27784448  1
  C  C168  1  0.50000000  0.37992349  0.61118888  1
  C  C169  1  0.50000000  0.37991230  0.94449053  1
  C  C170  1  0.50000000  0.44004888  0.27779290  1
  C  C171  1  0.50000000  0.43997647  0.61113872  1
  C  C172  1  0.50000000  0.43995905  0.94439054  1
  C  C173  1  0.50000000  0.50010258  0.27776642  1
  C  C174  1  0.50000000  0.50001784  0.61117553  1
  C  C175  1  0.50000000  0.49997089  0.94431561  1
  C  C176  1  0.50000000  0.56005353  0.27772635  1
  C  C177  1  0.50000000  0.56005665  0.61122631  1
  C  C178  1  0.50000000  0.55993266  0.94422235  1
  C  C179  1  0.50000000  0.62022035  0.27804550  1
  C  C180  1  0.50000000  0.62019112  0.61141856  1
  C  C181  1  0.50000000  0.62000605  0.94420211  1
  C  C182  1  0.50000000  0.68058991  0.61089654  1
  C  C183  1  0.50000000  0.68069295  0.94453585  1
  C  C184  1  0.50000000  0.74007725  0.60992531  1
  C  C185  1  0.50000000  0.73997933  0.94402604  1
  H  H186  1  0.50000000  0.23711156  0.03636470  1
  H  H187  1  0.50000000  0.23706670  0.36989373  1
  H  H188  1  0.50000000  0.23705108  0.70320433  1
  H  H189  1  0.50000000  0.76326828  0.70313418  1
  H  H190  1  0.50000000  0.23708683  0.13023728  1
  H  H191  1  0.50000000  0.23708515  0.46345255  1
  H  H192  1  0.50000000  0.23705674  0.79686343  1
  H  H193  1  0.50000000  0.76326513  0.79687169  1
  H  H194  1  0.50000000  0.23709649  0.20314150  1
  H  H195  1  0.50000000  0.23707513  0.53652771  1
  H  H196  1  0.50000000  0.23706443  0.86977750  1
  H  H197  1  0.50000000  0.76302320  0.53448095  1
  H  H198  1  0.50000000  0.76345720  0.86993319  1
  H  H199  1  0.50000000  0.23709056  0.29678874  1
  H  H200  1  0.50000000  0.23704395  0.63009106  1
  H  H201  1  0.50000000  0.23710186  0.96365355  1
  H  H202  1  0.50000000  0.76348614  0.62993256  1
  H  H203  1  0.50000000  0.76306017  0.96532097  1
  H  H204  1  0.50000000  0.67290417  0.28669668  1
  H  H205  1  0.50000000  0.71136639  0.01336629  1
  H  H206  1  0.50000000  0.67177937  0.04757320  1
  H  H207  1  0.50000000  0.67285690  0.38029055  1
  H  H208  1  0.50000000  0.67287161  0.11985521  1
  H  H209  1  0.50000000  0.67174872  0.45231942  1
  H  H210  1  0.50000000  0.67291707  0.21328575  1
  H  H211  1  0.50000000  0.71134286  0.48669652  1
