# generated using pymatgen
data_H4C29
_symmetry_space_group_name_H-M   'P 1'
_cell_length_a   20.00000000
_cell_length_b   40.19450000
_cell_length_c   25.76008626
_cell_angle_alpha   90.00000000
_cell_angle_beta   90.00000000
_cell_angle_gamma   90.00000000
_symmetry_Int_Tables_number   1
_chemical_formula_structural   H4C29
_chemical_formula_sum   'H24 C174'
_cell_volume   20708.27574173
_cell_formula_units_Z   6
loop_
 _symmetry_equiv_pos_site_id
 _symmetry_equiv_pos_as_xyz
  1  'x, y, z'
loop_
 _atom_site_type_symbol
 _atom_site_label
 _atom_site_symmetry_multiplicity
 _atom_site_fract_x
 _atom_site_fract_y
 _atom_site_fract_z
 _atom_site_occupancy
  C  C0  1  0.50000000  0.28574527  0.10999834  1
  C  C1  1  0.50000000  0.28559548  0.61000920  1
  C  C2  1  0.50000000  0.28572972  0.27662672  1
  C  C3  1  0.50000000  0.28564930  0.77679702  1
  C  C4  1  0.50000000  0.28565292  0.44338170  1
  C  C5  1  0.50000000  0.28571523  0.94342719  1
  C  C6  1  0.50000000  0.31573927  0.13865433  1
  C  C7  1  0.50000000  0.31559180  0.63871957  1
  C  C8  1  0.50000000  0.31571514  0.30531082  1
  C  C9  1  0.50000000  0.31564867  0.80543900  1
  C  C10  1  0.50000000  0.31564574  0.47203945  1
  C  C11  1  0.50000000  0.31573862  0.97202973  1
  C  C12  1  0.50000000  0.28574560  0.05655566  1
  C  C13  1  0.50000000  0.28562061  0.55660228  1
  C  C14  1  0.50000000  0.28575475  0.22320356  1
  C  C15  1  0.50000000  0.28562889  0.72335931  1
  C  C16  1  0.50000000  0.28565988  0.38996821  1
  C  C17  1  0.50000000  0.28568425  0.89002508  1
  C  C18  1  0.50000000  0.34643967  0.11111551  1
  C  C19  1  0.50000000  0.34629155  0.61113032  1
  C  C20  1  0.50000000  0.34641625  0.27776773  1
  C  C21  1  0.50000000  0.34631678  0.77783532  1
  C  C22  1  0.50000000  0.34634881  0.44445926  1
  C  C23  1  0.50000000  0.34640922  0.94446890  1
  C  C24  1  0.50000000  0.37730923  0.13896730  1
  C  C25  1  0.50000000  0.37716176  0.63897611  1
  C  C26  1  0.50000000  0.37727419  0.30563727  1
  C  C27  1  0.50000000  0.37719840  0.80565754  1
  C  C28  1  0.50000000  0.37721714  0.47230658  1
  C  C29  1  0.50000000  0.37727013  0.97231345  1
  C  C30  1  0.50000000  0.31575431  0.02795359  1
  C  C31  1  0.50000000  0.31562857  0.52795920  1
  C  C32  1  0.50000000  0.31575076  0.19457962  1
  C  C33  1  0.50000000  0.31562223  0.69467704  1
  C  C34  1  0.50000000  0.31566771  0.36128663  1
  C  C35  1  0.50000000  0.31568280  0.86135979  1
  C  C36  1  0.50000000  0.34643976  0.05553419  1
  C  C37  1  0.50000000  0.34631416  0.55553441  1
  C  C38  1  0.50000000  0.34643737  0.22219232  1
  C  C39  1  0.50000000  0.34630987  0.72223386  1
  C  C40  1  0.50000000  0.34636040  0.38886847  1
  C  C41  1  0.50000000  0.34638852  0.88890123  1
  C  C42  1  0.50000000  0.40795302  0.11117613  1
  C  C43  1  0.50000000  0.40783296  0.61116421  1
  C  C44  1  0.50000000  0.40793763  0.27784319  1
  C  C45  1  0.50000000  0.40784554  0.77781708  1
  C  C46  1  0.50000000  0.40788876  0.44450412  1
  C  C47  1  0.50000000  0.40789634  0.94447405  1
  C  C48  1  0.50000000  0.43864912  0.13891843  1
  C  C49  1  0.50000000  0.43850854  0.63892444  1
  C  C50  1  0.50000000  0.43863682  0.30560408  1
  C  C51  1  0.50000000  0.43852402  0.80557331  1
  C  C52  1  0.50000000  0.43856541  0.47227406  1
  C  C53  1  0.50000000  0.43857248  0.97223584  1
  C  C54  1  0.50000000  0.37728911  0.02768920  1
  C  C55  1  0.50000000  0.37719462  0.52768243  1
  C  C56  1  0.50000000  0.37730476  0.19435628  1
  C  C57  1  0.50000000  0.37716798  0.69434836  1
  C  C58  1  0.50000000  0.37725017  0.36103002  1
  C  C59  1  0.50000000  0.37722478  0.86102380  1
  C  C60  1  0.50000000  0.40793805  0.05551221  1
  C  C61  1  0.50000000  0.40784167  0.55550734  1
  C  C62  1  0.50000000  0.40795019  0.22216737  1
  C  C63  1  0.50000000  0.40783275  0.72217249  1
  C  C64  1  0.50000000  0.40790258  0.38884169  1
  C  C65  1  0.50000000  0.40788457  0.88882161  1
  C  C66  1  0.50000000  0.46940558  0.11109123  1
  C  C67  1  0.50000000  0.46927666  0.61111626  1
  C  C68  1  0.50000000  0.46943562  0.27780297  1
  C  C69  1  0.50000000  0.46926565  0.77774250  1
  C  C70  1  0.50000000  0.46935958  0.44449948  1
  C  C71  1  0.50000000  0.46929548  0.94437538  1
  C  C72  1  0.50000000  0.50010029  0.13882978  1
  C  C73  1  0.50000000  0.49993312  0.63894956  1
  C  C74  1  0.50000000  0.50009694  0.30559393  1
  C  C75  1  0.50000000  0.49994600  0.80551310  1
  C  C76  1  0.50000000  0.50000757  0.47230962  1
  C  C77  1  0.50000000  0.49997211  0.97213333  1
  C  C78  1  0.50000000  0.43859752  0.02774108  1
  C  C79  1  0.50000000  0.43853786  0.52776905  1
  C  C80  1  0.50000000  0.43865054  0.19442047  1
  C  C81  1  0.50000000  0.43851142  0.69442098  1
  C  C82  1  0.50000000  0.43861993  0.36111459  1
  C  C83  1  0.50000000  0.43854150  0.86106278  1
  C  C84  1  0.50000000  0.46937458  0.05554218  1
  C  C85  1  0.50000000  0.46927853  0.55561873  1
  C  C86  1  0.50000000  0.46943733  0.22221362  1
  C  C87  1  0.50000000  0.46925959  0.72228328  1
  C  C88  1  0.50000000  0.46938765  0.38895979  1
  C  C89  1  0.50000000  0.46929293  0.88888174  1
  C  C90  1  0.50000000  0.53081465  0.11098415  1
  C  C91  1  0.50000000  0.53066528  0.61119383  1
  C  C92  1  0.50000000  0.53088133  0.27778602  1
  C  C93  1  0.50000000  0.53064905  0.77773754  1
  C  C94  1  0.50000000  0.53078297  0.44456959  1
  C  C95  1  0.50000000  0.53063879  0.94427703  1
  C  C96  1  0.50000000  0.56160558  0.13871630  1
  C  C97  1  0.50000000  0.56139913  0.63904669  1
  C  C98  1  0.50000000  0.56160649  0.30558993  1
  C  C99  1  0.50000000  0.56141370  0.80550976  1
  C  C100  1  0.50000000  0.56148960  0.47241504  1
  C  C101  1  0.50000000  0.56139128  0.97203088  1
  C  C102  1  0.50000000  0.50000491  0.02773158  1
  C  C103  1  0.50000000  0.49996942  0.52788745  1
  C  C104  1  0.50000000  0.50009901  0.19444637  1
  C  C105  1  0.50000000  0.49994645  0.69450941  1
  C  C106  1  0.50000000  0.50009721  0.36122099  1
  C  C107  1  0.50000000  0.49993734  0.86106426  1
  C  C108  1  0.50000000  0.53076495  0.05548766  1
  C  C109  1  0.50000000  0.53064803  0.55573378  1
  C  C110  1  0.50000000  0.53087168  0.22225942  1
  C  C111  1  0.50000000  0.53065311  0.72231042  1
  C  C112  1  0.50000000  0.53082515  0.38908855  1
  C  C113  1  0.50000000  0.53065588  0.88882382  1
  C  C114  1  0.50000000  0.59214597  0.11092562  1
  C  C115  1  0.50000000  0.59210796  0.61133176  1
  C  C116  1  0.50000000  0.59222125  0.27780763  1
  C  C117  1  0.50000000  0.59210762  0.77778237  1
  C  C118  1  0.50000000  0.59219248  0.44470573  1
  C  C119  1  0.50000000  0.59194923  0.94421293  1
  C  C120  1  0.50000000  0.62307898  0.13870976  1
  C  C121  1  0.50000000  0.62282050  0.63925694  1
  C  C122  1  0.50000000  0.62308557  0.30575461  1
  C  C123  1  0.50000000  0.62284343  0.80554026  1
  C  C124  1  0.50000000  0.62290690  0.47263879  1
  C  C125  1  0.50000000  0.62270878  0.97205595  1
  C  C126  1  0.50000000  0.56146136  0.02763703  1
  C  C127  1  0.50000000  0.56141494  0.52800465  1
  C  C128  1  0.50000000  0.56158760  0.19448287  1
  C  C129  1  0.50000000  0.56142865  0.69452685  1
  C  C130  1  0.50000000  0.56163890  0.36136706  1
  C  C131  1  0.50000000  0.56137400  0.86097937  1
  C  C132  1  0.50000000  0.59214248  0.05537725  1
  C  C133  1  0.50000000  0.59198529  0.55581649  1
  C  C134  1  0.50000000  0.59220096  0.22228674  1
  C  C135  1  0.50000000  0.59212038  0.72228120  1
  C  C136  1  0.50000000  0.59219784  0.38915985  1
  C  C137  1  0.50000000  0.59206480  0.88870715  1
  C  C138  1  0.50000000  0.65375629  0.11119937  1
  C  C139  1  0.50000000  0.65366308  0.61147200  1
  C  C140  1  0.50000000  0.65374188  0.27807360  1
  C  C141  1  0.50000000  0.65376583  0.77787070  1
  C  C142  1  0.50000000  0.65394844  0.44523539  1
  C  C143  1  0.50000000  0.65325584  0.94403134  1
  C  C144  1  0.50000000  0.68363245  0.13987790  1
  C  C145  1  0.50000000  0.68454841  0.63865079  1
  C  C146  1  0.50000000  0.68368476  0.30663006  1
  C  C147  1  0.50000000  0.68447369  0.80569321  1
  C  C148  1  0.50000000  0.68355034  0.47358781  1
  C  C149  1  0.50000000  0.68390426  0.97205147  1
  C  C150  1  0.50000000  0.62283850  0.02744353  1
  C  C151  1  0.50000000  0.62277074  0.52802749  1
  C  C152  1  0.50000000  0.62304374  0.19434156  1
  C  C153  1  0.50000000  0.62287770  0.69453230  1
  C  C154  1  0.50000000  0.62314442  0.36138681  1
  C  C155  1  0.50000000  0.62276839  0.86081128  1
  C  C156  1  0.50000000  0.65386249  0.05486321  1
  C  C157  1  0.50000000  0.65333458  0.55604734  1
  C  C158  1  0.50000000  0.65371979  0.22198753  1
  C  C159  1  0.50000000  0.65379301  0.72224070  1
  C  C160  1  0.50000000  0.65383717  0.38890544  1
  C  C161  1  0.50000000  0.65358204  0.88862666  1
  C  C162  1  0.50000000  0.71469089  0.60941672  1
  C  C163  1  0.50000000  0.71453691  0.77680547  1
  C  C164  1  0.50000000  0.71440523  0.94394908  1
  C  C165  1  0.50000000  0.68344838  0.02649094  1
  C  C166  1  0.50000000  0.68400209  0.52804768  1
  C  C167  1  0.50000000  0.68363481  0.19340809  1
  C  C168  1  0.50000000  0.68453719  0.69447551  1
  C  C169  1  0.50000000  0.68370784  0.36017789  1
  C  C170  1  0.50000000  0.68446084  0.86148561  1
  C  C171  1  0.50000000  0.71450265  0.55616056  1
  C  C172  1  0.50000000  0.71456449  0.72348809  1
  C  C173  1  0.50000000  0.71459081  0.89071420  1
  H  H174  1  0.50000000  0.26178933  0.13005237  1
  H  H175  1  0.50000000  0.26161582  0.62998912  1
  H  H176  1  0.50000000  0.26175854  0.29664747  1
  H  H177  1  0.50000000  0.26169875  0.79684413  1
  H  H178  1  0.50000000  0.26165759  0.46332484  1
  H  H179  1  0.50000000  0.26180143  0.96361564  1
  H  H180  1  0.50000000  0.26182714  0.03639425  1
  H  H181  1  0.50000000  0.26162997  0.53665478  1
  H  H182  1  0.50000000  0.26179203  0.20316323  1
  H  H183  1  0.50000000  0.26166999  0.70333842  1
  H  H184  1  0.50000000  0.26167421  0.37000332  1
  H  H185  1  0.50000000  0.26173676  0.86994419  1
  H  H186  1  0.50000000  0.73863966  0.62949709  1
  H  H187  1  0.50000000  0.73846858  0.79692558  1
  H  H188  1  0.50000000  0.73789386  0.96557602  1
  H  H189  1  0.50000000  0.73795155  0.53440052  1
  H  H190  1  0.50000000  0.73853570  0.70350249  1
  H  H191  1  0.50000000  0.73857374  0.87075260  1
  H  H192  1  0.50000000  0.70761363  0.11991866  1
  H  H193  1  0.50000000  0.70763725  0.28656231  1
  H  H194  1  0.50000000  0.70759723  0.45373608  1
  H  H195  1  0.50000000  0.70751136  0.04626474  1
  H  H196  1  0.50000000  0.70758803  0.21344300  1
  H  H197  1  0.50000000  0.70768937  0.38018402  1
