# generated using pymatgen
data_H19C93
_symmetry_space_group_name_H-M   'P 1'
_cell_length_a   10.00000000
_cell_length_b   41.10890000
_cell_length_c   25.83113634
_cell_angle_alpha   90.00000000
_cell_angle_beta   90.00000000
_cell_angle_gamma   90.00000000
_symmetry_Int_Tables_number   1
_chemical_formula_structural   H19C93
_chemical_formula_sum   'H38 C186'
_cell_volume   10618.89600590
_cell_formula_units_Z   2
loop_
 _symmetry_equiv_pos_site_id
 _symmetry_equiv_pos_as_xyz
  1  'x, y, z'
loop_
 _atom_site_type_symbol
 _atom_site_label
 _atom_site_symmetry_multiplicity
 _atom_site_fract_x
 _atom_site_fract_y
 _atom_site_fract_z
 _atom_site_occupancy
  C  C0  1  0.50000000  0.28989055  0.30523377  1
  C  C1  1  0.50000000  0.28957403  0.63862881  1
  C  C2  1  0.50000000  0.28969387  0.97212096  1
  C  C3  1  0.50000000  0.35005703  0.30564499  1
  C  C4  1  0.50000000  0.34969952  0.63898567  1
  C  C5  1  0.50000000  0.34983115  0.97238185  1
  C  C6  1  0.50000000  0.40998612  0.30559861  1
  C  C7  1  0.50000000  0.40961316  0.63895394  1
  C  C8  1  0.50000000  0.40975807  0.97221659  1
  C  C9  1  0.50000000  0.47011284  0.30549250  1
  C  C10  1  0.50000000  0.46966170  0.63899074  1
  C  C11  1  0.50000000  0.46982872  0.97196627  1
  C  C12  1  0.50000000  0.53025156  0.30573972  1
  C  C13  1  0.50000000  0.52969850  0.63932115  1
  C  C14  1  0.50000000  0.52987075  0.97175170  1
  C  C15  1  0.50000000  0.58943458  0.30702337  1
  C  C16  1  0.50000000  0.58973353  0.63961378  1
  C  C17  1  0.50000000  0.58980416  0.97134023  1
  C  C18  1  0.50000000  0.65009255  0.63976968  1
  C  C19  1  0.50000000  0.65038038  0.96832524  1
  C  C20  1  0.50000000  0.71065670  0.30784968  1
  C  C21  1  0.50000000  0.71037968  0.64013824  1
  C  C22  1  0.50000000  0.71117870  0.97075683  1
  C  C23  1  0.50000000  0.28976530  0.02811134  1
  C  C24  1  0.50000000  0.28984431  0.36122849  1
  C  C25  1  0.50000000  0.28954572  0.69464008  1
  C  C26  1  0.50000000  0.34991716  0.02768825  1
  C  C27  1  0.50000000  0.34999715  0.36096336  1
  C  C28  1  0.50000000  0.34966459  0.69432126  1
  C  C29  1  0.50000000  0.40983253  0.02770812  1
  C  C30  1  0.50000000  0.40993339  0.36109741  1
  C  C31  1  0.50000000  0.40958428  0.69443091  1
  C  C32  1  0.50000000  0.46989400  0.02767873  1
  C  C33  1  0.50000000  0.47008388  0.36134747  1
  C  C34  1  0.50000000  0.46963639  0.69455399  1
  C  C35  1  0.50000000  0.52985532  0.02713982  1
  C  C36  1  0.50000000  0.53019856  0.36140139  1
  C  C37  1  0.50000000  0.52966945  0.69460682  1
  C  C38  1  0.50000000  0.58896228  0.02564026  1
  C  C39  1  0.50000000  0.58933958  0.36051991  1
  C  C40  1  0.50000000  0.58972369  0.69476711  1
  C  C41  1  0.50000000  0.64998587  0.69499261  1
  C  C42  1  0.50000000  0.71226267  0.02434979  1
  C  C43  1  0.50000000  0.71099672  0.36087773  1
  C  C44  1  0.50000000  0.71028181  0.69487724  1
  C  C45  1  0.50000000  0.26045047  0.05677632  1
  C  C46  1  0.50000000  0.26049191  0.38983154  1
  C  C47  1  0.50000000  0.26024132  0.72338068  1
  C  C48  1  0.50000000  0.31977199  0.05561515  1
  C  C49  1  0.50000000  0.31979232  0.38881992  1
  C  C50  1  0.50000000  0.31950604  0.72223977  1
  C  C51  1  0.50000000  0.37992096  0.05544827  1
  C  C52  1  0.50000000  0.37995071  0.38880147  1
  C  C53  1  0.50000000  0.37962389  0.72215242  1
  C  C54  1  0.50000000  0.43995483  0.05557021  1
  C  C55  1  0.50000000  0.44001425  0.38902845  1
  C  C56  1  0.50000000  0.43964427  0.72231429  1
  C  C57  1  0.50000000  0.49989101  0.05533968  1
  C  C58  1  0.50000000  0.49993466  0.38917656  1
  C  C59  1  0.50000000  0.49958988  0.72230701  1
  C  C60  1  0.50000000  0.56011228  0.05437118  1
  C  C61  1  0.50000000  0.56012174  0.38921969  1
  C  C62  1  0.50000000  0.55967638  0.72231070  1
  C  C63  1  0.50000000  0.61985177  0.72243791  1
  C  C64  1  0.50000000  0.68007055  0.72241914  1
  C  C65  1  0.50000000  0.74046596  0.05535828  1
  C  C66  1  0.50000000  0.73983144  0.39134446  1
  C  C67  1  0.50000000  0.73989823  0.72363681  1
  C  C68  1  0.50000000  0.26050508  0.11009811  1
  C  C69  1  0.50000000  0.26042590  0.44314313  1
  C  C70  1  0.50000000  0.26024470  0.77672395  1
  C  C71  1  0.50000000  0.31982622  0.11114592  1
  C  C72  1  0.50000000  0.31972833  0.44436271  1
  C  C73  1  0.50000000  0.31951090  0.77780151  1
  C  C74  1  0.50000000  0.37998547  0.11118496  1
  C  C75  1  0.50000000  0.37987967  0.44454139  1
  C  C76  1  0.50000000  0.37962881  0.77785834  1
  C  C77  1  0.50000000  0.44005337  0.11097468  1
  C  C78  1  0.50000000  0.43991322  0.44443822  1
  C  C79  1  0.50000000  0.43964713  0.77767975  1
  C  C80  1  0.50000000  0.49998170  0.11085565  1
  C  C81  1  0.50000000  0.49984538  0.44469344  1
  C  C82  1  0.50000000  0.49958948  0.77766434  1
  C  C83  1  0.50000000  0.56018771  0.11084947  1
  C  C84  1  0.50000000  0.56005335  0.44567642  1
  C  C85  1  0.50000000  0.55967204  0.77764751  1
  C  C86  1  0.50000000  0.61985007  0.77751488  1
  C  C87  1  0.50000000  0.68005991  0.77752881  1
  C  C88  1  0.50000000  0.73965309  0.10864909  1
  C  C89  1  0.50000000  0.74058677  0.44462678  1
  C  C90  1  0.50000000  0.73988344  0.77639782  1
  C  C91  1  0.50000000  0.28986717  0.13868890  1
  C  C92  1  0.50000000  0.28971804  0.47187329  1
  C  C93  1  0.50000000  0.28955734  0.80542389  1
  C  C94  1  0.50000000  0.35002715  0.13901192  1
  C  C95  1  0.50000000  0.34987443  0.47230053  1
  C  C96  1  0.50000000  0.34967504  0.80570257  1
  C  C97  1  0.50000000  0.40996758  0.13889479  1
  C  C98  1  0.50000000  0.40978975  0.47229330  1
  C  C99  1  0.50000000  0.40959265  0.80557436  1
  C  C100  1  0.50000000  0.47011733  0.13867142  1
  C  C101  1  0.50000000  0.46984686  0.47233364  1
  C  C102  1  0.50000000  0.46964190  0.80543558  1
  C  C103  1  0.50000000  0.53024680  0.13864067  1
  C  C104  1  0.50000000  0.52980578  0.47289842  1
  C  C105  1  0.50000000  0.52966821  0.80536609  1
  C  C106  1  0.50000000  0.58938851  0.13963111  1
  C  C107  1  0.50000000  0.58892868  0.47434677  1
  C  C108  1  0.50000000  0.58971859  0.80519975  1
  C  C109  1  0.50000000  0.64997584  0.80497236  1
  C  C110  1  0.50000000  0.71083857  0.13921920  1
  C  C111  1  0.50000000  0.71234904  0.47561568  1
  C  C112  1  0.50000000  0.71025497  0.80508383  1
  C  C113  1  0.50000000  0.28990651  0.19467530  1
  C  C114  1  0.50000000  0.28965108  0.52787855  1
  C  C115  1  0.50000000  0.28959232  0.86143218  1
  C  C116  1  0.50000000  0.35007394  0.19431700  1
  C  C117  1  0.50000000  0.34979414  0.52762208  1
  C  C118  1  0.50000000  0.34972160  0.86102873  1
  C  C119  1  0.50000000  0.41000340  0.19439209  1
  C  C120  1  0.50000000  0.40972193  0.52778962  1
  C  C121  1  0.50000000  0.40963167  0.86104955  1
  C  C122  1  0.50000000  0.47013088  0.19452070  1
  C  C123  1  0.50000000  0.46979660  0.52804364  1
  C  C124  1  0.50000000  0.46967499  0.86100507  1
  C  C125  1  0.50000000  0.53027326  0.19430809  1
  C  C126  1  0.50000000  0.52984045  0.52825246  1
  C  C127  1  0.50000000  0.52969629  0.86065053  1
  C  C128  1  0.50000000  0.58945894  0.19313296  1
  C  C129  1  0.50000000  0.58979118  0.52863196  1
  C  C130  1  0.50000000  0.58972678  0.86034830  1
  C  C131  1  0.50000000  0.65041102  0.53165909  1
  C  C132  1  0.50000000  0.65007755  0.86017862  1
  C  C133  1  0.50000000  0.71056158  0.19225924  1
  C  C134  1  0.50000000  0.71120481  0.52920500  1
  C  C135  1  0.50000000  0.71033482  0.85980693  1
  C  C136  1  0.50000000  0.26056277  0.22328578  1
  C  C137  1  0.50000000  0.26032328  0.55657359  1
  C  C138  1  0.50000000  0.26029230  0.89015920  1
  C  C139  1  0.50000000  0.31988909  0.22220204  1
  C  C140  1  0.50000000  0.31960099  0.55548932  1
  C  C141  1  0.50000000  0.31958371  0.88897346  1
  C  C142  1  0.50000000  0.38006692  0.22209554  1
  C  C143  1  0.50000000  0.37974052  0.55547790  1
  C  C144  1  0.50000000  0.37971187  0.88881047  1
  C  C145  1  0.50000000  0.44015186  0.22226584  1
  C  C146  1  0.50000000  0.43976437  0.55574244  1
  C  C147  1  0.50000000  0.43973169  0.88888643  1
  C  C148  1  0.50000000  0.50009325  0.22227207  1
  C  C149  1  0.50000000  0.49966989  0.55596291  1
  C  C150  1  0.50000000  0.49966913  0.88864427  1
  C  C151  1  0.50000000  0.56025205  0.22196317  1
  C  C152  1  0.50000000  0.55976926  0.55635561  1
  C  C153  1  0.50000000  0.55973967  0.88815168  1
  C  C154  1  0.50000000  0.62028961  0.55711842  1
  C  C155  1  0.50000000  0.61994033  0.88776631  1
  C  C156  1  0.50000000  0.68025864  0.55722842  1
  C  C157  1  0.50000000  0.68031575  0.88737024  1
  C  C158  1  0.50000000  0.73909839  0.22348271  1
  C  C159  1  0.50000000  0.74059727  0.55890895  1
  C  C160  1  0.50000000  0.74021058  0.88837521  1
  C  C161  1  0.50000000  0.26055479  0.27658329  1
  C  C162  1  0.50000000  0.26028196  0.60989997  1
  C  C163  1  0.50000000  0.26034324  0.94349520  1
  C  C164  1  0.50000000  0.31988044  0.27773343  1
  C  C165  1  0.50000000  0.31955612  0.61104851  1
  C  C166  1  0.50000000  0.31963818  0.94451997  1
  C  C167  1  0.50000000  0.38005735  0.27788342  1
  C  C168  1  0.50000000  0.37968710  0.61119583  1
  C  C169  1  0.50000000  0.37977425  0.94452682  1
  C  C170  1  0.50000000  0.44013931  0.27773747  1
  C  C171  1  0.50000000  0.43971235  0.61111827  1
  C  C172  1  0.50000000  0.43979746  0.94426810  1
  C  C173  1  0.50000000  0.50008149  0.27776231  1
  C  C174  1  0.50000000  0.49965642  0.61134712  1
  C  C175  1  0.50000000  0.49969293  0.94404504  1
  C  C176  1  0.50000000  0.56024533  0.27814161  1
  C  C177  1  0.50000000  0.55973963  0.61182328  1
  C  C178  1  0.50000000  0.55976476  0.94362851  1
  C  C179  1  0.50000000  0.61995558  0.61220708  1
  C  C180  1  0.50000000  0.62028386  0.94285530  1
  C  C181  1  0.50000000  0.68035217  0.61259231  1
  C  C182  1  0.50000000  0.68024160  0.94273094  1
  C  C183  1  0.50000000  0.73912979  0.27642652  1
  C  C184  1  0.50000000  0.74025956  0.61154461  1
  C  C185  1  0.50000000  0.74057685  0.94100745  1
  H  H186  1  0.50000000  0.23702706  0.03672919  1
  H  H187  1  0.50000000  0.23704044  0.36991266  1
  H  H188  1  0.50000000  0.23678476  0.70347213  1
  H  H189  1  0.50000000  0.76439595  0.03674669  1
  H  H190  1  0.50000000  0.76326995  0.37118115  1
  H  H191  1  0.50000000  0.76329327  0.70361782  1
  H  H192  1  0.50000000  0.23709221  0.13015369  1
  H  H193  1  0.50000000  0.23694168  0.46297672  1
  H  H194  1  0.50000000  0.23680845  0.79671115  1
  H  H195  1  0.50000000  0.76312012  0.12868119  1
  H  H196  1  0.50000000  0.76454279  0.46312384  1
  H  H197  1  0.50000000  0.76324176  0.79653443  1
  H  H198  1  0.50000000  0.23713043  0.20327983  1
  H  H199  1  0.50000000  0.23685319  0.53672259  1
  H  H200  1  0.50000000  0.23686314  0.87014193  1
  H  H201  1  0.50000000  0.76279912  0.20410532  1
  H  H202  1  0.50000000  0.76396379  0.53876044  1
  H  H203  1  0.50000000  0.76342666  0.86783980  1
  H  H204  1  0.50000000  0.23710102  0.29650969  1
  H  H205  1  0.50000000  0.23682254  0.62981183  1
  H  H206  1  0.50000000  0.23692703  0.96353994  1
  H  H207  1  0.50000000  0.76289153  0.29559337  1
  H  H208  1  0.50000000  0.76348977  0.63204446  1
  H  H209  1  0.50000000  0.76398568  0.96100061  1
  H  H210  1  0.50000000  0.61298822  0.28737237  1
  H  H211  1  0.50000000  0.65054140  0.01045620  1
  H  H212  1  0.50000000  0.68687208  0.28872649  1
  H  H213  1  0.50000000  0.61202546  0.04641425  1
  H  H214  1  0.50000000  0.61281073  0.38043722  1
  H  H215  1  0.50000000  0.68913793  0.04509281  1
  H  H216  1  0.50000000  0.68733120  0.38046116  1
  H  H217  1  0.50000000  0.61288059  0.11977512  1
  H  H218  1  0.50000000  0.61191316  0.45333921  1
  H  H219  1  0.50000000  0.68713761  0.11976297  1
  H  H220  1  0.50000000  0.68919952  0.45497547  1
  H  H221  1  0.50000000  0.61295918  0.21296689  1
  H  H222  1  0.50000000  0.65053079  0.48951045  1
  H  H223  1  0.50000000  0.68687539  0.21172425  1
