# generated using pymatgen
data_H20C93
_symmetry_space_group_name_H-M   'P 1'
_cell_length_a   10.00000000
_cell_length_b   41.10890000
_cell_length_c   25.94532591
_cell_angle_alpha   90.00000000
_cell_angle_beta   90.00000000
_cell_angle_gamma   90.00000000
_symmetry_Int_Tables_number   1
_chemical_formula_structural   H20C93
_chemical_formula_sum   'H40 C186'
_cell_volume   10665.83808378
_cell_formula_units_Z   2
loop_
 _symmetry_equiv_pos_site_id
 _symmetry_equiv_pos_as_xyz
  1  'x, y, z'
loop_
 _atom_site_type_symbol
 _atom_site_label
 _atom_site_symmetry_multiplicity
 _atom_site_fract_x
 _atom_site_fract_y
 _atom_site_fract_z
 _atom_site_occupancy
  C  C0  1  0.50000000  0.28588707  0.30573257  1
  C  C1  1  0.50000000  0.28833203  0.63927352  1
  C  C2  1  0.50000000  0.28755213  0.97114306  1
  C  C3  1  0.50000000  0.34593925  0.30580794  1
  C  C4  1  0.50000000  0.34839243  0.63921506  1
  C  C5  1  0.50000000  0.34767053  0.97202300  1
  C  C6  1  0.50000000  0.40572229  0.30564025  1
  C  C7  1  0.50000000  0.40843659  0.63878197  1
  C  C8  1  0.50000000  0.40774532  0.97216976  1
  C  C9  1  0.50000000  0.46538902  0.30567005  1
  C  C10  1  0.50000000  0.46875261  0.63838690  1
  C  C11  1  0.50000000  0.46813447  0.97263129  1
  C  C12  1  0.50000000  0.52502836  0.30418868  1
  C  C13  1  0.50000000  0.52878294  0.63909659  1
  C  C14  1  0.50000000  0.52887401  0.97327395  1
  C  C15  1  0.50000000  0.58890052  0.64089126  1
  C  C16  1  0.50000000  0.59036152  0.96501407  1
  C  C17  1  0.50000000  0.65001421  0.64101201  1
  C  C18  1  0.50000000  0.64901064  0.96622141  1
  C  C19  1  0.50000000  0.72949113  0.30522116  1
  C  C20  1  0.50000000  0.70990332  0.63993124  1
  C  C21  1  0.50000000  0.71106584  0.97136359  1
  C  C22  1  0.50000000  0.28702202  0.02696074  1
  C  C23  1  0.50000000  0.28613137  0.36177618  1
  C  C24  1  0.50000000  0.28853643  0.69493178  1
  C  C25  1  0.50000000  0.34708158  0.02723105  1
  C  C26  1  0.50000000  0.34621512  0.36116535  1
  C  C27  1  0.50000000  0.34859598  0.69435080  1
  C  C28  1  0.50000000  0.40705989  0.02761025  1
  C  C29  1  0.50000000  0.40603044  0.36116076  1
  C  C30  1  0.50000000  0.40853866  0.69434064  1
  C  C31  1  0.50000000  0.46716477  0.02791905  1
  C  C32  1  0.50000000  0.46572323  0.36083681  1
  C  C33  1  0.50000000  0.46867721  0.69426364  1
  C  C34  1  0.50000000  0.52747745  0.02906196  1
  C  C35  1  0.50000000  0.52497607  0.35892778  1
  C  C36  1  0.50000000  0.52869019  0.69450751  1
  C  C37  1  0.50000000  0.58886301  0.69563720  1
  C  C38  1  0.50000000  0.64964224  0.69578181  1
  C  C39  1  0.50000000  0.71594047  0.02792929  1
  C  C40  1  0.50000000  0.72674072  0.36163080  1
  C  C41  1  0.50000000  0.70981293  0.69550346  1
  C  C42  1  0.50000000  0.25751983  0.05540916  1
  C  C43  1  0.50000000  0.25707911  0.39132914  1
  C  C44  1  0.50000000  0.25918478  0.72352543  1
  C  C45  1  0.50000000  0.31676679  0.05501051  1
  C  C46  1  0.50000000  0.31625566  0.38928492  1
  C  C47  1  0.50000000  0.31851366  0.72230874  1
  C  C48  1  0.50000000  0.37688224  0.05530458  1
  C  C49  1  0.50000000  0.37628788  0.38911515  1
  C  C50  1  0.50000000  0.37866758  0.72214240  1
  C  C51  1  0.50000000  0.43685144  0.05561165  1
  C  C52  1  0.50000000  0.43608520  0.38902986  1
  C  C53  1  0.50000000  0.43872378  0.72220985  1
  C  C54  1  0.50000000  0.49689006  0.05608032  1
  C  C55  1  0.50000000  0.49588565  0.38824467  1
  C  C56  1  0.50000000  0.49859642  0.72222683  1
  C  C57  1  0.50000000  0.55521181  0.06189784  1
  C  C58  1  0.50000000  0.55446709  0.38571946  1
  C  C59  1  0.50000000  0.55862661  0.72242062  1
  C  C60  1  0.50000000  0.61936030  0.72249119  1
  C  C61  1  0.50000000  0.69042804  0.06403178  1
  C  C62  1  0.50000000  0.69563225  0.38368082  1
  C  C63  1  0.50000000  0.67985432  0.72274034  1
  C  C64  1  0.50000000  0.74751202  0.05046263  1
  C  C65  1  0.50000000  0.75288306  0.39663573  1
  C  C66  1  0.50000000  0.73908617  0.72352244  1
  C  C67  1  0.50000000  0.25707440  0.10858948  1
  C  C68  1  0.50000000  0.25752617  0.44451494  1
  C  C69  1  0.50000000  0.25918571  0.77648482  1
  C  C70  1  0.50000000  0.31624257  0.11064422  1
  C  C71  1  0.50000000  0.31677395  0.44492143  1
  C  C72  1  0.50000000  0.31851762  0.77764114  1
  C  C73  1  0.50000000  0.37626750  0.11082569  1
  C  C74  1  0.50000000  0.37689660  0.44463830  1
  C  C75  1  0.50000000  0.37867602  0.77778695  1
  C  C76  1  0.50000000  0.43606307  0.11091636  1
  C  C77  1  0.50000000  0.43686844  0.44433688  1
  C  C78  1  0.50000000  0.43871939  0.77771021  1
  C  C79  1  0.50000000  0.49585179  0.11168252  1
  C  C80  1  0.50000000  0.49693173  0.44385166  1
  C  C81  1  0.50000000  0.49858967  0.77770382  1
  C  C82  1  0.50000000  0.55442619  0.11419954  1
  C  C83  1  0.50000000  0.55526941  0.43803085  1
  C  C84  1  0.50000000  0.55862436  0.77755612  1
  C  C85  1  0.50000000  0.61935007  0.77755108  1
  C  C86  1  0.50000000  0.69549419  0.11651082  1
  C  C87  1  0.50000000  0.69055607  0.43614974  1
  C  C88  1  0.50000000  0.67984774  0.77735178  1
  C  C89  1  0.50000000  0.75273739  0.10354100  1
  C  C90  1  0.50000000  0.74763831  0.44971801  1
  C  C91  1  0.50000000  0.73908047  0.77662199  1
  C  C92  1  0.50000000  0.28612016  0.13815000  1
  C  C93  1  0.50000000  0.28702788  0.47296688  1
  C  C94  1  0.50000000  0.28854080  0.80502052  1
  C  C95  1  0.50000000  0.34619714  0.13877259  1
  C  C96  1  0.50000000  0.34709204  0.47270205  1
  C  C97  1  0.50000000  0.34860224  0.80558459  1
  C  C98  1  0.50000000  0.40600710  0.13878676  1
  C  C99  1  0.50000000  0.40707331  0.47233925  1
  C  C100  1  0.50000000  0.40854203  0.80559065  1
  C  C101  1  0.50000000  0.46570026  0.13910332  1
  C  C102  1  0.50000000  0.46719643  0.47201503  1
  C  C103  1  0.50000000  0.46866760  0.80565492  1
  C  C104  1  0.50000000  0.52494307  0.14099376  1
  C  C105  1  0.50000000  0.52752862  0.47086869  1
  C  C106  1  0.50000000  0.52866848  0.80543119  1
  C  C107  1  0.50000000  0.58885039  0.80436661  1
  C  C108  1  0.50000000  0.64963087  0.80428364  1
  C  C109  1  0.50000000  0.72660479  0.13855367  1
  C  C110  1  0.50000000  0.71606342  0.47223998  1
  C  C111  1  0.50000000  0.70979891  0.80461708  1
  C  C112  1  0.50000000  0.28587569  0.19418740  1
  C  C113  1  0.50000000  0.28756329  0.52878870  1
  C  C114  1  0.50000000  0.28832237  0.86064940  1
  C  C115  1  0.50000000  0.34591912  0.19411537  1
  C  C116  1  0.50000000  0.34769327  0.52790982  1
  C  C117  1  0.50000000  0.34838927  0.86071845  1
  C  C118  1  0.50000000  0.40570050  0.19431939  1
  C  C119  1  0.50000000  0.40776247  0.52777474  1
  C  C120  1  0.50000000  0.40842433  0.86115043  1
  C  C121  1  0.50000000  0.46537452  0.19426591  1
  C  C122  1  0.50000000  0.46817002  0.52730891  1
  C  C123  1  0.50000000  0.46872684  0.86154469  1
  C  C124  1  0.50000000  0.52500400  0.19572082  1
  C  C125  1  0.50000000  0.52891858  0.52666427  1
  C  C126  1  0.50000000  0.52874400  0.86085380  1
  C  C127  1  0.50000000  0.59041966  0.53500412  1
  C  C128  1  0.50000000  0.58886202  0.85910339  1
  C  C129  1  0.50000000  0.64909237  0.53384688  1
  C  C130  1  0.50000000  0.64997817  0.85906208  1
  C  C131  1  0.50000000  0.72941897  0.19495133  1
  C  C132  1  0.50000000  0.71115453  0.52878430  1
  C  C133  1  0.50000000  0.70986798  0.86019064  1
  C  C134  1  0.50000000  0.25661109  0.22332298  1
  C  C135  1  0.50000000  0.25846203  0.55799259  1
  C  C136  1  0.50000000  0.25884200  0.88891554  1
  C  C137  1  0.50000000  0.31578651  0.22208778  1
  C  C138  1  0.50000000  0.31772440  0.55604032  1
  C  C139  1  0.50000000  0.31813198  0.88843111  1
  C  C140  1  0.50000000  0.37578553  0.22224485  1
  C  C141  1  0.50000000  0.37790504  0.55565362  1
  C  C142  1  0.50000000  0.37830625  0.88873818  1
  C  C143  1  0.50000000  0.43553490  0.22228240  1
  C  C144  1  0.50000000  0.43814807  0.55541251  1
  C  C145  1  0.50000000  0.43841946  0.88920504  1
  C  C146  1  0.50000000  0.49507493  0.22251194  1
  C  C147  1  0.50000000  0.49881971  0.55466674  1
  C  C148  1  0.50000000  0.49862982  0.88933317  1
  C  C149  1  0.50000000  0.55463650  0.22362567  1
  C  C150  1  0.50000000  0.55945977  0.55642441  1
  C  C151  1  0.50000000  0.55882433  0.88761651  1
  C  C152  1  0.50000000  0.62003021  0.56172977  1
  C  C153  1  0.50000000  0.61958089  0.88425535  1
  C  C154  1  0.50000000  0.70045604  0.22370326  1
  C  C155  1  0.50000000  0.68023725  0.55637293  1
  C  C156  1  0.50000000  0.67999760  0.88771734  1
  C  C157  1  0.50000000  0.75874114  0.22303595  1
  C  C158  1  0.50000000  0.73939647  0.55900754  1
  C  C159  1  0.50000000  0.73908532  0.88788255  1
  C  C160  1  0.50000000  0.25661715  0.27659636  1
  C  C161  1  0.50000000  0.25885076  0.61101614  1
  C  C162  1  0.50000000  0.25845694  0.94193261  1
  C  C163  1  0.50000000  0.31579779  0.27783350  1
  C  C164  1  0.50000000  0.31813858  0.61149048  1
  C  C165  1  0.50000000  0.31770658  0.94388392  1
  C  C166  1  0.50000000  0.37580742  0.27774016  1
  C  C167  1  0.50000000  0.37831554  0.61119627  1
  C  C168  1  0.50000000  0.37788626  0.94428199  1
  C  C169  1  0.50000000  0.43554612  0.27765961  1
  C  C170  1  0.50000000  0.43843962  0.61072628  1
  C  C171  1  0.50000000  0.43812011  0.94451639  1
  C  C172  1  0.50000000  0.49508710  0.27741952  1
  C  C173  1  0.50000000  0.49866715  0.61061789  1
  C  C174  1  0.50000000  0.49878447  0.94528134  1
  C  C175  1  0.50000000  0.55465252  0.27624146  1
  C  C176  1  0.50000000  0.55886607  0.61235129  1
  C  C177  1  0.50000000  0.55943795  0.94352817  1
  C  C178  1  0.50000000  0.61962730  0.61578338  1
  C  C179  1  0.50000000  0.61993987  0.93830608  1
  C  C180  1  0.50000000  0.70048993  0.27655691  1
  C  C181  1  0.50000000  0.68003896  0.61238110  1
  C  C182  1  0.50000000  0.68016966  0.94372493  1
  C  C183  1  0.50000000  0.75877702  0.27704283  1
  C  C184  1  0.50000000  0.73914278  0.61227797  1
  C  C185  1  0.50000000  0.73932201  0.94117120  1
  H  H186  1  0.50000000  0.23417386  0.03520145  1
  H  H187  1  0.50000000  0.23340185  0.37211760  1
  H  H188  1  0.50000000  0.23584408  0.70346118  1
  H  H189  1  0.50000000  0.76934496  0.02646696  1
  H  H190  1  0.50000000  0.77803118  0.38258301  1
  H  H191  1  0.50000000  0.76244571  0.70347459  1
  H  H192  1  0.50000000  0.23339115  0.12776611  1
  H  H193  1  0.50000000  0.23419411  0.46475857  1
  H  H194  1  0.50000000  0.23584833  0.79655470  1
  H  H195  1  0.50000000  0.77787435  0.11761887  1
  H  H196  1  0.50000000  0.76945926  0.47373632  1
  H  H197  1  0.50000000  0.76242367  0.79670863  1
  H  H198  1  0.50000000  0.23314005  0.20345169  1
  H  H199  1  0.50000000  0.23489933  0.53855504  1
  H  H200  1  0.50000000  0.23558653  0.86861405  1
  H  H201  1  0.50000000  0.78208528  0.20262282  1
  H  H202  1  0.50000000  0.76325314  0.54060466  1
  H  H203  1  0.50000000  0.76250597  0.86805400  1
  H  H204  1  0.50000000  0.23314394  0.29646409  1
  H  H205  1  0.50000000  0.23561460  0.63137768  1
  H  H206  1  0.50000000  0.23489996  0.96138604  1
  H  H207  1  0.50000000  0.78214629  0.29737986  1
  H  H208  1  0.50000000  0.76255823  0.63212993  1
  H  H209  1  0.50000000  0.76317188  0.95959416  1
  H  H210  1  0.50000000  0.59490371  0.00539622  1
  H  H211  1  0.50000000  0.64529125  0.00735541  1
  H  H212  1  0.50000000  0.57965606  0.04838730  1
  H  H213  1  0.50000000  0.57773239  0.36549450  1
  H  H214  1  0.50000000  0.66517215  0.05290762  1
  H  H215  1  0.50000000  0.67381283  0.35985535  1
  H  H216  1  0.50000000  0.57769867  0.13440303  1
  H  H217  1  0.50000000  0.57971386  0.45157539  1
  H  H218  1  0.50000000  0.67366961  0.14032994  1
  H  H219  1  0.50000000  0.66530656  0.44729695  1
  H  H220  1  0.50000000  0.59497719  0.49459835  1
  H  H221  1  0.50000000  0.64536964  0.49272400  1
  H  H222  1  0.50000000  0.57792958  0.20350542  1
  H  H223  1  0.50000000  0.67676520  0.20497900  1
  H  H224  1  0.50000000  0.57796718  0.29629703  1
  H  H225  1  0.50000000  0.67681992  0.29535518  1
