# generated using pymatgen
data_H2C15
_symmetry_space_group_name_H-M   'P 1'
_cell_length_a   20.00000000
_cell_length_b   40.19450000
_cell_length_c   25.78276794
_cell_angle_alpha   90.00000000
_cell_angle_beta   90.00000000
_cell_angle_gamma   90.00000000
_symmetry_Int_Tables_number   1
_chemical_formula_structural   H2C15
_chemical_formula_sum   'H24 C180'
_cell_volume   20726.50932004
_cell_formula_units_Z   12
loop_
 _symmetry_equiv_pos_site_id
 _symmetry_equiv_pos_as_xyz
  1  'x, y, z'
loop_
 _atom_site_type_symbol
 _atom_site_label
 _atom_site_symmetry_multiplicity
 _atom_site_fract_x
 _atom_site_fract_y
 _atom_site_fract_z
 _atom_site_occupancy
  C  C0  1  0.50000000  0.28581333  0.10985996  1
  C  C1  1  0.50000000  0.28562353  0.60996958  1
  C  C2  1  0.50000000  0.28562529  0.27666130  1
  C  C3  1  0.50000000  0.28564774  0.77675357  1
  C  C4  1  0.50000000  0.28564004  0.44344598  1
  C  C5  1  0.50000000  0.28591474  0.94353659  1
  C  C6  1  0.50000000  0.31573455  0.13862490  1
  C  C7  1  0.50000000  0.31559869  0.63863013  1
  C  C8  1  0.50000000  0.31561792  0.30527380  1
  C  C9  1  0.50000000  0.31567132  0.80529904  1
  C  C10  1  0.50000000  0.31562002  0.47200223  1
  C  C11  1  0.50000000  0.31591371  0.97200490  1
  C  C12  1  0.50000000  0.28591474  0.05646341  1
  C  C13  1  0.50000000  0.28564004  0.55655402  1
  C  C14  1  0.50000000  0.28564774  0.22324643  1
  C  C15  1  0.50000000  0.28562529  0.72333870  1
  C  C16  1  0.50000000  0.28562353  0.39003042  1
  C  C17  1  0.50000000  0.28581333  0.89014004  1
  C  C18  1  0.50000000  0.34643120  0.11115713  1
  C  C19  1  0.50000000  0.34627404  0.61110481  1
  C  C20  1  0.50000000  0.34631644  0.27779694  1
  C  C21  1  0.50000000  0.34634681  0.77778008  1
  C  C22  1  0.50000000  0.34628188  0.44446855  1
  C  C23  1  0.50000000  0.34651636  0.94440713  1
  C  C24  1  0.50000000  0.37727974  0.13903273  1
  C  C25  1  0.50000000  0.37717687  0.63894884  1
  C  C26  1  0.50000000  0.37720560  0.30567149  1
  C  C27  1  0.50000000  0.37725213  0.80563982  1
  C  C28  1  0.50000000  0.37716688  0.47232599  1
  C  C29  1  0.50000000  0.37737516  0.97229542  1
  C  C30  1  0.50000000  0.31591371  0.02799510  1
  C  C31  1  0.50000000  0.31562002  0.52799777  1
  C  C32  1  0.50000000  0.31567132  0.19470096  1
  C  C33  1  0.50000000  0.31561792  0.69472620  1
  C  C34  1  0.50000000  0.31559869  0.36136987  1
  C  C35  1  0.50000000  0.31573455  0.86137510  1
  C  C36  1  0.50000000  0.34651636  0.05559287  1
  C  C37  1  0.50000000  0.34628188  0.55553145  1
  C  C38  1  0.50000000  0.34634681  0.22221992  1
  C  C39  1  0.50000000  0.34631644  0.72220306  1
  C  C40  1  0.50000000  0.34627404  0.38889519  1
  C  C41  1  0.50000000  0.34643120  0.88884287  1
  C  C42  1  0.50000000  0.40794014  0.11129909  1
  C  C43  1  0.50000000  0.40783047  0.61117485  1
  C  C44  1  0.50000000  0.40786351  0.27789348  1
  C  C45  1  0.50000000  0.40789221  0.77789064  1
  C  C46  1  0.50000000  0.40782986  0.44460298  1
  C  C47  1  0.50000000  0.40797750  0.94449721  1
  C  C48  1  0.50000000  0.43857920  0.13896759  1
  C  C49  1  0.50000000  0.43850253  0.63885346  1
  C  C50  1  0.50000000  0.43851675  0.30561559  1
  C  C51  1  0.50000000  0.43855847  0.80554664  1
  C  C52  1  0.50000000  0.43849577  0.47226677  1
  C  C53  1  0.50000000  0.43860544  0.97223920  1
  C  C54  1  0.50000000  0.37737516  0.02770458  1
  C  C55  1  0.50000000  0.37716688  0.52767401  1
  C  C56  1  0.50000000  0.37725213  0.19436017  1
  C  C57  1  0.50000000  0.37720560  0.69432851  1
  C  C58  1  0.50000000  0.37717687  0.36105116  1
  C  C59  1  0.50000000  0.37727974  0.86096727  1
  C  C60  1  0.50000000  0.40797750  0.05550279  1
  C  C61  1  0.50000000  0.40782986  0.55539702  1
  C  C62  1  0.50000000  0.40789221  0.22210936  1
  C  C63  1  0.50000000  0.40786351  0.72210652  1
  C  C64  1  0.50000000  0.40783047  0.38882515  1
  C  C65  1  0.50000000  0.40794014  0.88870091  1
  C  C66  1  0.50000000  0.46936052  0.11114549  1
  C  C67  1  0.50000000  0.46931298  0.61100108  1
  C  C68  1  0.50000000  0.46932142  0.27775024  1
  C  C69  1  0.50000000  0.46934336  0.77771128  1
  C  C70  1  0.50000000  0.46931435  0.44447579  1
  C  C71  1  0.50000000  0.46936634  0.94435033  1
  C  C72  1  0.50000000  0.50000000  0.13888604  1
  C  C73  1  0.50000000  0.50000000  0.63872621  1
  C  C74  1  0.50000000  0.50000000  0.30550239  1
  C  C75  1  0.50000000  0.50000000  0.80541818  1
  C  C76  1  0.50000000  0.50000000  0.47216324  1
  C  C77  1  0.50000000  0.50000000  0.97211910  1
  C  C78  1  0.50000000  0.43860544  0.02776080  1
  C  C79  1  0.50000000  0.43849577  0.52773323  1
  C  C80  1  0.50000000  0.43855847  0.19445336  1
  C  C81  1  0.50000000  0.43851675  0.69438441  1
  C  C82  1  0.50000000  0.43850253  0.36114654  1
  C  C83  1  0.50000000  0.43857920  0.86103241  1
  C  C84  1  0.50000000  0.46936634  0.05564967  1
  C  C85  1  0.50000000  0.46931435  0.55552420  1
  C  C86  1  0.50000000  0.46934336  0.22228872  1
  C  C87  1  0.50000000  0.46932142  0.72224976  1
  C  C88  1  0.50000000  0.46931298  0.38899892  1
  C  C89  1  0.50000000  0.46936052  0.88885451  1
  C  C90  1  0.50000000  0.53063948  0.11114549  1
  C  C91  1  0.50000000  0.53068702  0.61100108  1
  C  C92  1  0.50000000  0.53067858  0.27775024  1
  C  C93  1  0.50000000  0.53065665  0.77771128  1
  C  C94  1  0.50000000  0.53068565  0.44447579  1
  C  C95  1  0.50000000  0.53063367  0.94435033  1
  C  C96  1  0.50000000  0.56142080  0.13896759  1
  C  C97  1  0.50000000  0.56149748  0.63885346  1
  C  C98  1  0.50000000  0.56148326  0.30561559  1
  C  C99  1  0.50000000  0.56144154  0.80554664  1
  C  C100  1  0.50000000  0.56150424  0.47226677  1
  C  C101  1  0.50000000  0.56139457  0.97223920  1
  C  C102  1  0.50000000  0.50000000  0.02788090  1
  C  C103  1  0.50000000  0.50000000  0.52783676  1
  C  C104  1  0.50000000  0.50000000  0.19458182  1
  C  C105  1  0.50000000  0.50000000  0.69449761  1
  C  C106  1  0.50000000  0.50000000  0.36127379  1
  C  C107  1  0.50000000  0.50000000  0.86111396  1
  C  C108  1  0.50000000  0.53063367  0.05564967  1
  C  C109  1  0.50000000  0.53068565  0.55552420  1
  C  C110  1  0.50000000  0.53065665  0.22228872  1
  C  C111  1  0.50000000  0.53067858  0.72224976  1
  C  C112  1  0.50000000  0.53068702  0.38899892  1
  C  C113  1  0.50000000  0.53063948  0.88885451  1
  C  C114  1  0.50000000  0.59205986  0.11129909  1
  C  C115  1  0.50000000  0.59216954  0.61117485  1
  C  C116  1  0.50000000  0.59213650  0.27789348  1
  C  C117  1  0.50000000  0.59210779  0.77789064  1
  C  C118  1  0.50000000  0.59217015  0.44460298  1
  C  C119  1  0.50000000  0.59202250  0.94449721  1
  C  C120  1  0.50000000  0.62272027  0.13903273  1
  C  C121  1  0.50000000  0.62282313  0.63894884  1
  C  C122  1  0.50000000  0.62279441  0.30567149  1
  C  C123  1  0.50000000  0.62274787  0.80563982  1
  C  C124  1  0.50000000  0.62283313  0.47232599  1
  C  C125  1  0.50000000  0.62262484  0.97229542  1
  C  C126  1  0.50000000  0.56139457  0.02776080  1
  C  C127  1  0.50000000  0.56150424  0.52773323  1
  C  C128  1  0.50000000  0.56144154  0.19445336  1
  C  C129  1  0.50000000  0.56148326  0.69438441  1
  C  C130  1  0.50000000  0.56149748  0.36114654  1
  C  C131  1  0.50000000  0.56142080  0.86103241  1
  C  C132  1  0.50000000  0.59202250  0.05550279  1
  C  C133  1  0.50000000  0.59217015  0.55539702  1
  C  C134  1  0.50000000  0.59210779  0.22210936  1
  C  C135  1  0.50000000  0.59213650  0.72210652  1
  C  C136  1  0.50000000  0.59216954  0.38882515  1
  C  C137  1  0.50000000  0.59205986  0.88870091  1
  C  C138  1  0.50000000  0.65356881  0.11115713  1
  C  C139  1  0.50000000  0.65372596  0.61110481  1
  C  C140  1  0.50000000  0.65368356  0.27779694  1
  C  C141  1  0.50000000  0.65365319  0.77778008  1
  C  C142  1  0.50000000  0.65371812  0.44446855  1
  C  C143  1  0.50000000  0.65348364  0.94440713  1
  C  C144  1  0.50000000  0.68426545  0.13862490  1
  C  C145  1  0.50000000  0.68440131  0.63863013  1
  C  C146  1  0.50000000  0.68438208  0.30527380  1
  C  C147  1  0.50000000  0.68432869  0.80529904  1
  C  C148  1  0.50000000  0.68437999  0.47200223  1
  C  C149  1  0.50000000  0.68408629  0.97200490  1
  C  C150  1  0.50000000  0.62262484  0.02770458  1
  C  C151  1  0.50000000  0.62283313  0.52767401  1
  C  C152  1  0.50000000  0.62274787  0.19436017  1
  C  C153  1  0.50000000  0.62279441  0.69432851  1
  C  C154  1  0.50000000  0.62282314  0.36105116  1
  C  C155  1  0.50000000  0.62272027  0.86096727  1
  C  C156  1  0.50000000  0.65348364  0.05559287  1
  C  C157  1  0.50000000  0.65371812  0.55553145  1
  C  C158  1  0.50000000  0.65365319  0.22221992  1
  C  C159  1  0.50000000  0.65368356  0.72220306  1
  C  C160  1  0.50000000  0.65372596  0.38889519  1
  C  C161  1  0.50000000  0.65356880  0.88884287  1
  C  C162  1  0.50000000  0.71418668  0.10985996  1
  C  C163  1  0.50000000  0.71437647  0.60996958  1
  C  C164  1  0.50000000  0.71437471  0.27666130  1
  C  C165  1  0.50000000  0.71435227  0.77675357  1
  C  C166  1  0.50000000  0.71435996  0.44344598  1
  C  C167  1  0.50000000  0.71408526  0.94353659  1
  C  C168  1  0.50000000  0.68408629  0.02799510  1
  C  C169  1  0.50000000  0.68437999  0.52799777  1
  C  C170  1  0.50000000  0.68432869  0.19470096  1
  C  C171  1  0.50000000  0.68438208  0.69472620  1
  C  C172  1  0.50000000  0.68440131  0.36136987  1
  C  C173  1  0.50000000  0.68426545  0.86137510  1
  C  C174  1  0.50000000  0.71408526  0.05646341  1
  C  C175  1  0.50000000  0.71435996  0.55655402  1
  C  C176  1  0.50000000  0.71435227  0.22324643  1
  C  C177  1  0.50000000  0.71437471  0.72333870  1
  C  C178  1  0.50000000  0.71437647  0.39003042  1
  C  C179  1  0.50000000  0.71418667  0.89014004  1
  H  H180  1  0.50000000  0.26175036  0.12952422  1
  H  H181  1  0.50000000  0.26163119  0.62987144  1
  H  H182  1  0.50000000  0.26166055  0.29669371  1
  H  H183  1  0.50000000  0.26167695  0.79675857  1
  H  H184  1  0.50000000  0.26166431  0.46339118  1
  H  H185  1  0.50000000  0.26197098  0.96356314  1
  H  H186  1  0.50000000  0.26197098  0.03643685  1
  H  H187  1  0.50000000  0.26166431  0.53660882  1
  H  H188  1  0.50000000  0.26167695  0.20324143  1
  H  H189  1  0.50000000  0.26166055  0.70330629  1
  H  H190  1  0.50000000  0.26163119  0.37012856  1
  H  H191  1  0.50000000  0.26175036  0.87047578  1
  H  H192  1  0.50000000  0.73824964  0.12952422  1
  H  H193  1  0.50000000  0.73836881  0.62987144  1
  H  H194  1  0.50000000  0.73833945  0.29669371  1
  H  H195  1  0.50000000  0.73832305  0.79675857  1
  H  H196  1  0.50000000  0.73833569  0.46339118  1
  H  H197  1  0.50000000  0.73802902  0.96356314  1
  H  H198  1  0.50000000  0.73802902  0.03643685  1
  H  H199  1  0.50000000  0.73833569  0.53660882  1
  H  H200  1  0.50000000  0.73832305  0.20324143  1
  H  H201  1  0.50000000  0.73833945  0.70330629  1
  H  H202  1  0.50000000  0.73836881  0.37012856  1
  H  H203  1  0.50000000  0.73824964  0.87047578  1
