# generated using pymatgen
data_H19C96
_symmetry_space_group_name_H-M   'P 1'
_cell_length_a   10.00000000
_cell_length_b   41.10890000
_cell_length_c   25.89278051
_cell_angle_alpha   90.00000000
_cell_angle_beta   90.00000000
_cell_angle_gamma   90.00000000
_symmetry_Int_Tables_number   1
_chemical_formula_structural   H19C96
_chemical_formula_sum   'H38 C192'
_cell_volume   10644.23724770
_cell_formula_units_Z   2
loop_
 _symmetry_equiv_pos_site_id
 _symmetry_equiv_pos_as_xyz
  1  'x, y, z'
loop_
 _atom_site_type_symbol
 _atom_site_label
 _atom_site_symmetry_multiplicity
 _atom_site_fract_x
 _atom_site_fract_y
 _atom_site_fract_z
 _atom_site_occupancy
  C  C0  1  0.50000000  0.28710699  0.30573961  1
  C  C1  1  0.50000000  0.29006548  0.63919700  1
  C  C2  1  0.50000000  0.28934780  0.97091144  1
  C  C3  1  0.50000000  0.34707558  0.30586287  1
  C  C4  1  0.50000000  0.35032525  0.63902646  1
  C  C5  1  0.50000000  0.34959610  0.97188113  1
  C  C6  1  0.50000000  0.40644398  0.30576411  1
  C  C7  1  0.50000000  0.41042053  0.63871894  1
  C  C8  1  0.50000000  0.40981343  0.97244230  1
  C  C9  1  0.50000000  0.46598153  0.30393289  1
  C  C10  1  0.50000000  0.47042846  0.63919837  1
  C  C11  1  0.50000000  0.47063519  0.97295015  1
  C  C12  1  0.50000000  0.53092495  0.64001382  1
  C  C13  1  0.50000000  0.53202937  0.96550503  1
  C  C14  1  0.50000000  0.59173545  0.30734892  1
  C  C15  1  0.50000000  0.59183759  0.64064989  1
  C  C16  1  0.50000000  0.59187356  0.97026585  1
  C  C17  1  0.50000000  0.65065965  0.30595093  1
  C  C18  1  0.50000000  0.65180138  0.63950591  1
  C  C19  1  0.50000000  0.65163435  0.97148358  1
  C  C20  1  0.50000000  0.71079744  0.30527645  1
  C  C21  1  0.50000000  0.71200787  0.63872195  1
  C  C22  1  0.50000000  0.71171592  0.97187766  1
  C  C23  1  0.50000000  0.28867521  0.02692537  1
  C  C24  1  0.50000000  0.28746981  0.36208636  1
  C  C25  1  0.50000000  0.29023504  0.69506404  1
  C  C26  1  0.50000000  0.34879143  0.02720602  1
  C  C27  1  0.50000000  0.34749790  0.36129625  1
  C  C28  1  0.50000000  0.35047144  0.69447562  1
  C  C29  1  0.50000000  0.40872350  0.02774762  1
  C  C30  1  0.50000000  0.40692390  0.36103147  1
  C  C31  1  0.50000000  0.41044113  0.69429016  1
  C  C32  1  0.50000000  0.46918223  0.02943684  1
  C  C33  1  0.50000000  0.46602019  0.35901576  1
  C  C34  1  0.50000000  0.47045078  0.69465214  1
  C  C35  1  0.50000000  0.53089802  0.69524741  1
  C  C36  1  0.50000000  0.59251595  0.02455330  1
  C  C37  1  0.50000000  0.59187963  0.36083747  1
  C  C38  1  0.50000000  0.59165949  0.69541331  1
  C  C39  1  0.50000000  0.65146706  0.02674024  1
  C  C40  1  0.50000000  0.65077822  0.36159020  1
  C  C41  1  0.50000000  0.65183334  0.69470109  1
  C  C42  1  0.50000000  0.71147828  0.02793063  1
  C  C43  1  0.50000000  0.71092430  0.36147566  1
  C  C44  1  0.50000000  0.71209639  0.69475028  1
  C  C45  1  0.50000000  0.25920493  0.05503978  1
  C  C46  1  0.50000000  0.25856503  0.39158598  1
  C  C47  1  0.50000000  0.26098175  0.72341463  1
  C  C48  1  0.50000000  0.31834277  0.05490803  1
  C  C49  1  0.50000000  0.31760111  0.38949365  1
  C  C50  1  0.50000000  0.32031634  0.72233539  1
  C  C51  1  0.50000000  0.37840756  0.05513609  1
  C  C52  1  0.50000000  0.37743838  0.38903706  1
  C  C53  1  0.50000000  0.38042754  0.72212402  1
  C  C54  1  0.50000000  0.43853800  0.05602454  1
  C  C55  1  0.50000000  0.43716824  0.38840403  1
  C  C56  1  0.50000000  0.44046975  0.72222311  1
  C  C57  1  0.50000000  0.49664413  0.06239486  1
  C  C58  1  0.50000000  0.49546434  0.38512605  1
  C  C59  1  0.50000000  0.50062932  0.72241144  1
  C  C60  1  0.50000000  0.56113191  0.72248530  1
  C  C61  1  0.50000000  0.62122938  0.05370067  1
  C  C62  1  0.50000000  0.62100687  0.38961372  1
  C  C63  1  0.50000000  0.62188931  0.72237835  1
  C  C64  1  0.50000000  0.68144620  0.05514867  1
  C  C65  1  0.50000000  0.68117257  0.38928844  1
  C  C66  1  0.50000000  0.68209608  0.72229951  1
  C  C67  1  0.50000000  0.74059871  0.05692033  1
  C  C68  1  0.50000000  0.74031460  0.38979189  1
  C  C69  1  0.50000000  0.74133869  0.72332160  1
  C  C70  1  0.50000000  0.25856372  0.10842691  1
  C  C71  1  0.50000000  0.25920244  0.44497721  1
  C  C72  1  0.50000000  0.26098183  0.77664969  1
  C  C73  1  0.50000000  0.31759260  0.11049822  1
  C  C74  1  0.50000000  0.31834704  0.44509051  1
  C  C75  1  0.50000000  0.32030262  0.77768425  1
  C  C76  1  0.50000000  0.37744247  0.11096483  1
  C  C77  1  0.50000000  0.37841751  0.44487576  1
  C  C78  1  0.50000000  0.38041121  0.77789702  1
  C  C79  1  0.50000000  0.43716204  0.11159586  1
  C  C80  1  0.50000000  0.43854928  0.44397863  1
  C  C81  1  0.50000000  0.44046661  0.77779635  1
  C  C82  1  0.50000000  0.49546406  0.11488973  1
  C  C83  1  0.50000000  0.49665068  0.43761627  1
  C  C84  1  0.50000000  0.50062421  0.77759237  1
  C  C85  1  0.50000000  0.56113398  0.77751088  1
  C  C86  1  0.50000000  0.62100146  0.11039313  1
  C  C87  1  0.50000000  0.62123309  0.44629004  1
  C  C88  1  0.50000000  0.62189244  0.77761089  1
  C  C89  1  0.50000000  0.68116925  0.11071863  1
  C  C90  1  0.50000000  0.68144721  0.44484842  1
  C  C91  1  0.50000000  0.68210038  0.77769864  1
  C  C92  1  0.50000000  0.74032965  0.11021705  1
  C  C93  1  0.50000000  0.74058424  0.44307105  1
  C  C94  1  0.50000000  0.74134134  0.77668667  1
  C  C95  1  0.50000000  0.28746890  0.13790406  1
  C  C96  1  0.50000000  0.28868303  0.47307345  1
  C  C97  1  0.50000000  0.29023363  0.80495464  1
  C  C98  1  0.50000000  0.34749854  0.13869257  1
  C  C99  1  0.50000000  0.34878441  0.47278900  1
  C  C100  1  0.50000000  0.35046254  0.80553430  1
  C  C101  1  0.50000000  0.40692025  0.13897190  1
  C  C102  1  0.50000000  0.40873391  0.47225981  1
  C  C103  1  0.50000000  0.41043411  0.80570241  1
  C  C104  1  0.50000000  0.46601099  0.14098208  1
  C  C105  1  0.50000000  0.46918819  0.47056989  1
  C  C106  1  0.50000000  0.47044586  0.80536065  1
  C  C107  1  0.50000000  0.53089603  0.80474417  1
  C  C108  1  0.50000000  0.59186933  0.13917627  1
  C  C109  1  0.50000000  0.59251784  0.47542130  1
  C  C110  1  0.50000000  0.59166360  0.80457481  1
  C  C111  1  0.50000000  0.65077465  0.13841873  1
  C  C112  1  0.50000000  0.65146794  0.47325418  1
  C  C113  1  0.50000000  0.65183537  0.80527919  1
  C  C114  1  0.50000000  0.71092654  0.13851555  1
  C  C115  1  0.50000000  0.71147737  0.47207559  1
  C  C116  1  0.50000000  0.71210041  0.80524805  1
  C  C117  1  0.50000000  0.28709980  0.19426961  1
  C  C118  1  0.50000000  0.28934699  0.52908294  1
  C  C119  1  0.50000000  0.29007571  0.86082007  1
  C  C120  1  0.50000000  0.34707582  0.19413713  1
  C  C121  1  0.50000000  0.34959756  0.52812134  1
  C  C122  1  0.50000000  0.35033318  0.86095421  1
  C  C123  1  0.50000000  0.40643973  0.19424137  1
  C  C124  1  0.50000000  0.40981683  0.52756264  1
  C  C125  1  0.50000000  0.41041557  0.86129592  1
  C  C126  1  0.50000000  0.46597290  0.19605814  1
  C  C127  1  0.50000000  0.47062748  0.52706182  1
  C  C128  1  0.50000000  0.47042426  0.86081617  1
  C  C129  1  0.50000000  0.53204322  0.53443988  1
  C  C130  1  0.50000000  0.53091677  0.85998252  1
  C  C131  1  0.50000000  0.59173024  0.19267349  1
  C  C132  1  0.50000000  0.59188557  0.52971174  1
  C  C133  1  0.50000000  0.59183223  0.85933607  1
  C  C134  1  0.50000000  0.65066064  0.19405718  1
  C  C135  1  0.50000000  0.65163563  0.52850585  1
  C  C136  1  0.50000000  0.65180396  0.86048521  1
  C  C137  1  0.50000000  0.71079509  0.19471635  1
  C  C138  1  0.50000000  0.71171181  0.52812157  1
  C  C139  1  0.50000000  0.71201072  0.86128255  1
  C  C140  1  0.50000000  0.25791353  0.22323971  1
  C  C141  1  0.50000000  0.26030047  0.55794591  1
  C  C142  1  0.50000000  0.26064209  0.88879625  1
  C  C143  1  0.50000000  0.31692472  0.22212079  1
  C  C144  1  0.50000000  0.31955245  0.55621586  1
  C  C145  1  0.50000000  0.31994933  0.88845623  1
  C  C146  1  0.50000000  0.37671995  0.22206589  1
  C  C147  1  0.50000000  0.37985597  0.55540146  1
  C  C148  1  0.50000000  0.38014973  0.88879105  1
  C  C149  1  0.50000000  0.43613862  0.22257881  1
  C  C150  1  0.50000000  0.44065483  0.55484024  1
  C  C151  1  0.50000000  0.44059020  0.88907001  1
  C  C152  1  0.50000000  0.49546251  0.22360675  1
  C  C153  1  0.50000000  0.50091775  0.55668883  1
  C  C154  1  0.50000000  0.50067089  0.88788416  1
  C  C155  1  0.50000000  0.56163486  0.55946247  1
  C  C156  1  0.50000000  0.56155113  0.88600788  1
  C  C157  1  0.50000000  0.62076237  0.22176229  1
  C  C158  1  0.50000000  0.62188428  0.55684053  1
  C  C159  1  0.50000000  0.62181277  0.88750571  1
  C  C160  1  0.50000000  0.68085794  0.22222029  1
  C  C161  1  0.50000000  0.68192969  0.55604702  1
  C  C162  1  0.50000000  0.68199587  0.88853509  1
  C  C163  1  0.50000000  0.74001795  0.22331397  1
  C  C164  1  0.50000000  0.74104515  0.55650617  1
  C  C165  1  0.50000000  0.74117488  0.89018562  1
  C  C166  1  0.50000000  0.25792146  0.27674471  1
  C  C167  1  0.50000000  0.26065494  0.61119351  1
  C  C168  1  0.50000000  0.26029577  0.94203559  1
  C  C169  1  0.50000000  0.31692704  0.27786535  1
  C  C170  1  0.50000000  0.31993223  0.61155065  1
  C  C171  1  0.50000000  0.31956210  0.94378746  1
  C  C172  1  0.50000000  0.37672242  0.27793507  1
  C  C173  1  0.50000000  0.38015420  0.61119810  1
  C  C174  1  0.50000000  0.37986218  0.94459121  1
  C  C175  1  0.50000000  0.43613936  0.27742114  1
  C  C176  1  0.50000000  0.44059262  0.61093287  1
  C  C177  1  0.50000000  0.44066236  0.94516341  1
  C  C178  1  0.50000000  0.49546228  0.27637938  1
  C  C179  1  0.50000000  0.50067808  0.61211817  1
  C  C180  1  0.50000000  0.50090546  0.94330120  1
  C  C181  1  0.50000000  0.56155570  0.61396857  1
  C  C182  1  0.50000000  0.56162400  0.94050935  1
  C  C183  1  0.50000000  0.62076084  0.27824761  1
  C  C184  1  0.50000000  0.62181749  0.61246953  1
  C  C185  1  0.50000000  0.62187590  0.94313460  1
  C  C186  1  0.50000000  0.68085677  0.27777931  1
  C  C187  1  0.50000000  0.68199778  0.61145944  1
  C  C188  1  0.50000000  0.68193048  0.94392975  1
  C  C189  1  0.50000000  0.74001661  0.27665550  1
  C  C190  1  0.50000000  0.74116710  0.60981566  1
  C  C191  1  0.50000000  0.74106077  0.94349801  1
  H  H192  1  0.50000000  0.23596212  0.03461989  1
  H  H193  1  0.50000000  0.23485910  0.37242468  1
  H  H194  1  0.50000000  0.23756401  0.70347959  1
  H  H195  1  0.50000000  0.76410196  0.03720919  1
  H  H196  1  0.50000000  0.76367578  0.36964645  1
  H  H197  1  0.50000000  0.76479149  0.70340520  1
  H  H198  1  0.50000000  0.23485563  0.12754978  1
  H  H199  1  0.50000000  0.23597089  0.46543130  1
  H  H200  1  0.50000000  0.23756296  0.79657280  1
  H  H201  1  0.50000000  0.76365406  0.13047613  1
  H  H202  1  0.50000000  0.76412566  0.46266017  1
  H  H203  1  0.50000000  0.76478525  0.79663328  1
  H  H204  1  0.50000000  0.23441037  0.20341025  1
  H  H205  1  0.50000000  0.23672272  0.53846532  1
  H  H206  1  0.50000000  0.23731285  0.86858386  1
  H  H207  1  0.50000000  0.76347819  0.20342329  1
  H  H208  1  0.50000000  0.76443108  0.53643696  1
  H  H209  1  0.50000000  0.76462881  0.87033216  1
  H  H210  1  0.50000000  0.23441765  0.29656512  1
  H  H211  1  0.50000000  0.23730650  0.63134365  1
  H  H212  1  0.50000000  0.23674740  0.96159131  1
  H  H213  1  0.50000000  0.76348330  0.29652707  1
  H  H214  1  0.50000000  0.76464465  0.62960293  1
  H  H215  1  0.50000000  0.76440820  0.96367302  1
  H  H216  1  0.50000000  0.53503049  0.00602157  1
  H  H217  1  0.50000000  0.56830398  0.28752977  1
  H  H218  1  0.50000000  0.56961654  0.04570540  1
  H  H219  1  0.50000000  0.56853022  0.38092388  1
  H  H220  1  0.50000000  0.52127204  0.04974615  1
  H  H221  1  0.50000000  0.51838648  0.36419549  1
  H  H222  1  0.50000000  0.51837203  0.13586263  1
  H  H223  1  0.50000000  0.52126257  0.45030497  1
  H  H224  1  0.50000000  0.56853004  0.11906137  1
  H  H225  1  0.50000000  0.56962030  0.45426313  1
  H  H226  1  0.50000000  0.53504595  0.49392398  1
  H  H227  1  0.50000000  0.56831709  0.21255544  1
  H  H228  1  0.50000000  0.51863349  0.20335824  1
  H  H229  1  0.50000000  0.51864867  0.29659523  1
