# generated using pymatgen
data_H19C96
_symmetry_space_group_name_H-M   'P 1'
_cell_length_a   10.00000000
_cell_length_b   41.10890000
_cell_length_c   25.87725209
_cell_angle_alpha   90.00000000
_cell_angle_beta   90.00000000
_cell_angle_gamma   90.00000000
_symmetry_Int_Tables_number   1
_chemical_formula_structural   H19C96
_chemical_formula_sum   'H38 C192'
_cell_volume   10637.85368447
_cell_formula_units_Z   2
loop_
 _symmetry_equiv_pos_site_id
 _symmetry_equiv_pos_as_xyz
  1  'x, y, z'
loop_
 _atom_site_type_symbol
 _atom_site_label
 _atom_site_symmetry_multiplicity
 _atom_site_fract_x
 _atom_site_fract_y
 _atom_site_fract_z
 _atom_site_occupancy
  C  C0  1  0.50000000  0.28833797  0.30559075  1
  C  C1  1  0.50000000  0.28951638  0.63902250  1
  C  C2  1  0.50000000  0.28920967  0.97149542  1
  C  C3  1  0.50000000  0.34840724  0.30577682  1
  C  C4  1  0.50000000  0.34967047  0.63911081  1
  C  C5  1  0.50000000  0.34936917  0.97209336  1
  C  C6  1  0.50000000  0.40819315  0.30573547  1
  C  C7  1  0.50000000  0.40977288  0.63893876  1
  C  C8  1  0.50000000  0.40942065  0.97202149  1
  C  C9  1  0.50000000  0.46798638  0.30575515  1
  C  C10  1  0.50000000  0.47009887  0.63883206  1
  C  C11  1  0.50000000  0.46971314  0.97202371  1
  C  C12  1  0.50000000  0.52743355  0.30584248  1
  C  C13  1  0.50000000  0.53035629  0.63868107  1
  C  C14  1  0.50000000  0.53012743  0.97247651  1
  C  C15  1  0.50000000  0.58697557  0.30409332  1
  C  C16  1  0.50000000  0.59045474  0.63914366  1
  C  C17  1  0.50000000  0.59101010  0.97301040  1
  C  C18  1  0.50000000  0.65093982  0.64019534  1
  C  C19  1  0.50000000  0.65278355  0.96524659  1
  C  C20  1  0.50000000  0.71413394  0.30861743  1
  C  C21  1  0.50000000  0.71166280  0.64167523  1
  C  C22  1  0.50000000  0.71322390  0.96908767  1
  C  C23  1  0.50000000  0.28897831  0.02736176  1
  C  C24  1  0.50000000  0.28848856  0.36156930  1
  C  C25  1  0.50000000  0.28964467  0.69483518  1
  C  C26  1  0.50000000  0.34904262  0.02730673  1
  C  C27  1  0.50000000  0.34856353  0.36108054  1
  C  C28  1  0.50000000  0.34983097  0.69436474  1
  C  C29  1  0.50000000  0.40899260  0.02752798  1
  C  C30  1  0.50000000  0.40838018  0.36131492  1
  C  C31  1  0.50000000  0.40988989  0.69444602  1
  C  C32  1  0.50000000  0.46912992  0.02750465  1
  C  C33  1  0.50000000  0.46821792  0.36127516  1
  C  C34  1  0.50000000  0.47013320  0.69443412  1
  C  C35  1  0.50000000  0.52919488  0.02772771  1
  C  C36  1  0.50000000  0.52774432  0.36098225  1
  C  C37  1  0.50000000  0.53028911  0.69417214  1
  C  C38  1  0.50000000  0.58960339  0.02921901  1
  C  C39  1  0.50000000  0.58689410  0.35902981  1
  C  C40  1  0.50000000  0.59030956  0.69455663  1
  C  C41  1  0.50000000  0.65063488  0.69522404  1
  C  C42  1  0.50000000  0.71470975  0.02272709  1
  C  C43  1  0.50000000  0.71464019  0.36170935  1
  C  C44  1  0.50000000  0.71121254  0.69592395  1
  C  C45  1  0.50000000  0.25953829  0.05589543  1
  C  C46  1  0.50000000  0.25930398  0.39071549  1
  C  C47  1  0.50000000  0.26031974  0.72354758  1
  C  C48  1  0.50000000  0.31882032  0.05517884  1
  C  C49  1  0.50000000  0.31851097  0.38909091  1
  C  C50  1  0.50000000  0.31966843  0.72227498  1
  C  C51  1  0.50000000  0.37895408  0.05522560  1
  C  C52  1  0.50000000  0.37859215  0.38912815  1
  C  C53  1  0.50000000  0.37990001  0.72218251  1
  C  C54  1  0.50000000  0.43893696  0.05537391  1
  C  C55  1  0.50000000  0.43843511  0.38931721  1
  C  C56  1  0.50000000  0.44004826  0.72228299  1
  C  C57  1  0.50000000  0.49888146  0.05534137  1
  C  C58  1  0.50000000  0.49812686  0.38912338  1
  C  C59  1  0.50000000  0.50019776  0.72218535  1
  C  C60  1  0.50000000  0.55902337  0.05596828  1
  C  C61  1  0.50000000  0.55790576  0.38837536  1
  C  C62  1  0.50000000  0.56025617  0.72224728  1
  C  C63  1  0.50000000  0.61725718  0.06205876  1
  C  C64  1  0.50000000  0.61634123  0.38562256  1
  C  C65  1  0.50000000  0.62038367  0.72246527  1
  C  C66  1  0.50000000  0.68076003  0.72266509  1
  C  C67  1  0.50000000  0.74311776  0.05356264  1
  C  C68  1  0.50000000  0.74305455  0.39314544  1
  C  C69  1  0.50000000  0.74097555  0.72391814  1
  C  C70  1  0.50000000  0.25930346  0.10912856  1
  C  C71  1  0.50000000  0.25950151  0.44395834  1
  C  C72  1  0.50000000  0.26034177  0.77667796  1
  C  C73  1  0.50000000  0.31852711  0.11082952  1
  C  C74  1  0.50000000  0.31879167  0.44475224  1
  C  C75  1  0.50000000  0.31969204  0.77773181  1
  C  C76  1  0.50000000  0.37861832  0.11085858  1
  C  C77  1  0.50000000  0.37893483  0.44475487  1
  C  C78  1  0.50000000  0.37991232  0.77778371  1
  C  C79  1  0.50000000  0.43845335  0.11067882  1
  C  C80  1  0.50000000  0.43892831  0.44462019  1
  C  C81  1  0.50000000  0.44005828  0.77771520  1
  C  C82  1  0.50000000  0.49812791  0.11087447  1
  C  C83  1  0.50000000  0.49886748  0.44464087  1
  C  C84  1  0.50000000  0.50018427  0.77784519  1
  C  C85  1  0.50000000  0.55788558  0.11160589  1
  C  C86  1  0.50000000  0.55899386  0.44402366  1
  C  C87  1  0.50000000  0.56024923  0.77777638  1
  C  C88  1  0.50000000  0.61631475  0.11447924  1
  C  C89  1  0.50000000  0.61721189  0.43803876  1
  C  C90  1  0.50000000  0.62038071  0.77756790  1
  C  C91  1  0.50000000  0.68075170  0.77744816  1
  C  C92  1  0.50000000  0.74295885  0.10693470  1
  C  C93  1  0.50000000  0.74314181  0.44654519  1
  C  C94  1  0.50000000  0.74095650  0.77630355  1
  C  C95  1  0.50000000  0.28848921  0.13832085  1
  C  C96  1  0.50000000  0.28893781  0.47254793  1
  C  C97  1  0.50000000  0.28970654  0.80522381  1
  C  C98  1  0.50000000  0.34857712  0.13886545  1
  C  C99  1  0.50000000  0.34901555  0.47264362  1
  C  C100  1  0.50000000  0.34984983  0.80560580  1
  C  C101  1  0.50000000  0.40841244  0.13867345  1
  C  C102  1  0.50000000  0.40898088  0.47246520  1
  C  C103  1  0.50000000  0.40989526  0.80553481  1
  C  C104  1  0.50000000  0.46823907  0.13870097  1
  C  C105  1  0.50000000  0.46911924  0.47247791  1
  C  C106  1  0.50000000  0.47013566  0.80557007  1
  C  C107  1  0.50000000  0.52773578  0.13899332  1
  C  C108  1  0.50000000  0.52916766  0.47226520  1
  C  C109  1  0.50000000  0.53027292  0.80580086  1
  C  C110  1  0.50000000  0.58685005  0.14096461  1
  C  C111  1  0.50000000  0.58955048  0.47079307  1
  C  C112  1  0.50000000  0.59030466  0.80545432  1
  C  C113  1  0.50000000  0.65062473  0.80484693  1
  C  C114  1  0.50000000  0.71446252  0.13817197  1
  C  C115  1  0.50000000  0.71473716  0.47737558  1
  C  C116  1  0.50000000  0.71119179  0.80423984  1
  C  C117  1  0.50000000  0.28835736  0.19429448  1
  C  C118  1  0.50000000  0.28918894  0.52842980  1
  C  C119  1  0.50000000  0.28955887  0.86098727  1
  C  C120  1  0.50000000  0.34842007  0.19416842  1
  C  C121  1  0.50000000  0.34934577  0.52786669  1
  C  C122  1  0.50000000  0.34969710  0.86085754  1
  C  C123  1  0.50000000  0.40821234  0.19426932  1
  C  C124  1  0.50000000  0.40941050  0.52796045  1
  C  C125  1  0.50000000  0.40978141  0.86103431  1
  C  C126  1  0.50000000  0.46798159  0.19425008  1
  C  C127  1  0.50000000  0.46970835  0.52796397  1
  C  C128  1  0.50000000  0.47010714  0.86115384  1
  C  C129  1  0.50000000  0.52742088  0.19414818  1
  C  C130  1  0.50000000  0.53011940  0.52752768  1
  C  C131  1  0.50000000  0.53036073  0.86132011  1
  C  C132  1  0.50000000  0.58694132  0.19589464  1
  C  C133  1  0.50000000  0.59100125  0.52699460  1
  C  C134  1  0.50000000  0.59045242  0.86084887  1
  C  C135  1  0.50000000  0.65282831  0.53475361  1
  C  C136  1  0.50000000  0.65094719  0.85986315  1
  C  C137  1  0.50000000  0.71389788  0.19125896  1
  C  C138  1  0.50000000  0.71326610  0.53103106  1
  C  C139  1  0.50000000  0.71167778  0.85848220  1
  C  C140  1  0.50000000  0.25905182  0.22326233  1
  C  C141  1  0.50000000  0.25995458  0.55737732  1
  C  C142  1  0.50000000  0.26010286  0.88940159  1
  C  C143  1  0.50000000  0.31825803  0.22208591  1
  C  C144  1  0.50000000  0.31926003  0.55584928  1
  C  C145  1  0.50000000  0.31946081  0.88863301  1
  C  C146  1  0.50000000  0.37834447  0.22214755  1
  C  C147  1  0.50000000  0.37949221  0.55566868  1
  C  C148  1  0.50000000  0.37969930  0.88873286  1
  C  C149  1  0.50000000  0.43808444  0.22232881  1
  C  C150  1  0.50000000  0.43966851  0.55579600  1
  C  C151  1  0.50000000  0.43989448  0.88888774  1
  C  C152  1  0.50000000  0.49764685  0.22218994  1
  C  C153  1  0.50000000  0.49998890  0.55548662  1
  C  C154  1  0.50000000  0.50010544  0.88899907  1
  C  C155  1  0.50000000  0.55708320  0.22252575  1
  C  C156  1  0.50000000  0.56085198  0.55485001  1
  C  C157  1  0.50000000  0.56055156  0.88917787  1
  C  C158  1  0.50000000  0.61654905  0.22360546  1
  C  C159  1  0.50000000  0.62139253  0.55661004  1
  C  C160  1  0.50000000  0.62078422  0.88798649  1
  C  C161  1  0.50000000  0.68240519  0.55992468  1
  C  C162  1  0.50000000  0.68180338  0.88555404  1
  C  C163  1  0.50000000  0.74206885  0.22330488  1
  C  C164  1  0.50000000  0.74255542  0.56091555  1
  C  C165  1  0.50000000  0.74170730  0.88678046  1
  C  C166  1  0.50000000  0.25903924  0.27655652  1
  C  C167  1  0.50000000  0.26008399  0.61054624  1
  C  C168  1  0.50000000  0.25996210  0.94257244  1
  C  C169  1  0.50000000  0.31824801  0.27783349  1
  C  C170  1  0.50000000  0.31942439  0.61134716  1
  C  C171  1  0.50000000  0.31928767  0.94411042  1
  C  C172  1  0.50000000  0.37833971  0.27781302  1
  C  C173  1  0.50000000  0.37968275  0.61123681  1
  C  C174  1  0.50000000  0.37950658  0.94430034  1
  C  C175  1  0.50000000  0.43809366  0.27773315  1
  C  C176  1  0.50000000  0.43989305  0.61109888  1
  C  C177  1  0.50000000  0.43966727  0.94417882  1
  C  C178  1  0.50000000  0.49765284  0.27781338  1
  C  C179  1  0.50000000  0.50009511  0.61099931  1
  C  C180  1  0.50000000  0.50000177  0.94450882  1
  C  C181  1  0.50000000  0.55709879  0.27747250  1
  C  C182  1  0.50000000  0.56054527  0.61081933  1
  C  C183  1  0.50000000  0.56085610  0.94515746  1
  C  C184  1  0.50000000  0.61657708  0.27633041  1
  C  C185  1  0.50000000  0.62078649  0.61200490  1
  C  C186  1  0.50000000  0.62137476  0.94335747  1
  C  C187  1  0.50000000  0.68179979  0.61455114  1
  C  C188  1  0.50000000  0.68238288  0.94016769  1
  C  C189  1  0.50000000  0.74219429  0.27631919  1
  C  C190  1  0.50000000  0.74169076  0.61342522  1
  C  C191  1  0.50000000  0.74254118  0.93928537  1
  H  H192  1  0.50000000  0.23620384  0.03567240  1
  H  H193  1  0.50000000  0.23587339  0.37082160  1
  H  H194  1  0.50000000  0.23689513  0.70359378  1
  H  H195  1  0.50000000  0.76702244  0.03483055  1
  H  H196  1  0.50000000  0.76679260  0.37386754  1
  H  H197  1  0.50000000  0.76418882  0.70355416  1
  H  H198  1  0.50000000  0.23578762  0.12877355  1
  H  H199  1  0.50000000  0.23615428  0.46415452  1
  H  H200  1  0.50000000  0.23695267  0.79675043  1
  H  H201  1  0.50000000  0.76665355  0.12636807  1
  H  H202  1  0.50000000  0.76698151  0.46553791  1
  H  H203  1  0.50000000  0.76411515  0.79682192  1
  H  H204  1  0.50000000  0.23566174  0.20318032  1
  H  H205  1  0.50000000  0.23649680  0.53756232  1
  H  H206  1  0.50000000  0.23678703  0.86909035  1
  H  H207  1  0.50000000  0.76583572  0.20411325  1
  H  H208  1  0.50000000  0.76615008  0.54140138  1
  H  H209  1  0.50000000  0.76481785  0.86607131  1
  H  H210  1  0.50000000  0.23559931  0.29647440  1
  H  H211  1  0.50000000  0.23672603  0.63070849  1
  H  H212  1  0.50000000  0.23650343  0.96240034  1
  H  H213  1  0.50000000  0.76604479  0.29523286  1
  H  H214  1  0.50000000  0.76476100  0.63425860  1
  H  H215  1  0.50000000  0.76608669  0.95897766  1
  H  H216  1  0.50000000  0.65601421  0.00579058  1
  H  H217  1  0.50000000  0.69025591  0.28977673  1
  H  H218  1  0.50000000  0.69188052  0.04431358  1
  H  H219  1  0.50000000  0.69097463  0.38115710  1
  H  H220  1  0.50000000  0.64177470  0.04887934  1
  H  H221  1  0.50000000  0.63947695  0.36521276  1
  H  H222  1  0.50000000  0.63938883  0.13505988  1
  H  H223  1  0.50000000  0.64166330  0.45147072  1
  H  H224  1  0.50000000  0.69090583  0.11837198  1
  H  H225  1  0.50000000  0.69187325  0.45590659  1
  H  H226  1  0.50000000  0.65620933  0.49420043  1
  H  H227  1  0.50000000  0.69001545  0.21003891  1
  H  H228  1  0.50000000  0.63974786  0.20336724  1
  H  H229  1  0.50000000  0.63980688  0.29649462  1
