# generated using pymatgen
data_H19C96
_symmetry_space_group_name_H-M   'P 1'
_cell_length_a   10.00000000
_cell_length_b   41.10890000
_cell_length_c   25.84847945
_cell_angle_alpha   90.00000000
_cell_angle_beta   90.00000000
_cell_angle_gamma   90.00000000
_symmetry_Int_Tables_number   1
_chemical_formula_structural   H19C96
_chemical_formula_sum   'H38 C192'
_cell_volume   10626.02556746
_cell_formula_units_Z   2
loop_
 _symmetry_equiv_pos_site_id
 _symmetry_equiv_pos_as_xyz
  1  'x, y, z'
loop_
 _atom_site_type_symbol
 _atom_site_label
 _atom_site_symmetry_multiplicity
 _atom_site_fract_x
 _atom_site_fract_y
 _atom_site_fract_z
 _atom_site_occupancy
  C  C0  1  0.50000000  0.28783921  0.30574324  1
  C  C1  1  0.50000000  0.28959298  0.63921499  1
  C  C2  1  0.50000000  0.28914947  0.97136394  1
  C  C3  1  0.50000000  0.34780462  0.30589143  1
  C  C4  1  0.50000000  0.34978974  0.63918538  1
  C  C5  1  0.50000000  0.34929462  0.97200971  1
  C  C6  1  0.50000000  0.40756362  0.30577292  1
  C  C7  1  0.50000000  0.41005291  0.63886856  1
  C  C8  1  0.50000000  0.40952597  0.97199048  1
  C  C9  1  0.50000000  0.46712471  0.30586021  1
  C  C10  1  0.50000000  0.47052740  0.63869222  1
  C  C11  1  0.50000000  0.47001171  0.97249907  1
  C  C12  1  0.50000000  0.52662367  0.30415898  1
  C  C13  1  0.50000000  0.53064724  0.63927296  1
  C  C14  1  0.50000000  0.53079856  0.97317914  1
  C  C15  1  0.50000000  0.59120506  0.64003928  1
  C  C16  1  0.50000000  0.59234269  0.96542356  1
  C  C17  1  0.50000000  0.65197737  0.30760838  1
  C  C18  1  0.50000000  0.65219167  0.64082769  1
  C  C19  1  0.50000000  0.65223256  0.97049357  1
  C  C20  1  0.50000000  0.71119437  0.30570813  1
  C  C21  1  0.50000000  0.71240946  0.63937852  1
  C  C22  1  0.50000000  0.71228830  0.97129724  1
  C  C23  1  0.50000000  0.28873843  0.02704980  1
  C  C24  1  0.50000000  0.28804188  0.36166622  1
  C  C25  1  0.50000000  0.28977567  0.69481563  1
  C  C26  1  0.50000000  0.34879799  0.02717161  1
  C  C27  1  0.50000000  0.34803359  0.36117125  1
  C  C28  1  0.50000000  0.34996890  0.69434687  1
  C  C29  1  0.50000000  0.40885513  0.02749768  1
  C  C30  1  0.50000000  0.40783998  0.36131971  1
  C  C31  1  0.50000000  0.41015604  0.69447174  1
  C  C32  1  0.50000000  0.46904595  0.02773341  1
  C  C33  1  0.50000000  0.46748091  0.36099971  1
  C  C34  1  0.50000000  0.47051142  0.69425086  1
  C  C35  1  0.50000000  0.52942490  0.02913651  1
  C  C36  1  0.50000000  0.52658166  0.35889620  1
  C  C37  1  0.50000000  0.53066103  0.69451414  1
  C  C38  1  0.50000000  0.59116762  0.69525375  1
  C  C39  1  0.50000000  0.65288169  0.02442788  1
  C  C40  1  0.50000000  0.65223859  0.36081659  1
  C  C41  1  0.50000000  0.65198497  0.69531238  1
  C  C42  1  0.50000000  0.71213574  0.02703050  1
  C  C43  1  0.50000000  0.71141809  0.36172952  1
  C  C44  1  0.50000000  0.71236432  0.69494480  1
  C  C45  1  0.50000000  0.25920462  0.05564831  1
  C  C46  1  0.50000000  0.25884079  0.39101625  1
  C  C47  1  0.50000000  0.26033827  0.72352938  1
  C  C48  1  0.50000000  0.31852985  0.05499242  1
  C  C49  1  0.50000000  0.31808857  0.38924978  1
  C  C50  1  0.50000000  0.31982038  0.72225094  1
  C  C51  1  0.50000000  0.37868857  0.05527217  1
  C  C52  1  0.50000000  0.37810510  0.38926223  1
  C  C53  1  0.50000000  0.38015014  0.72224664  1
  C  C54  1  0.50000000  0.43864853  0.05546088  1
  C  C55  1  0.50000000  0.43782664  0.38923504  1
  C  C56  1  0.50000000  0.44035452  0.72226004  1
  C  C57  1  0.50000000  0.49879749  0.05597284  1
  C  C58  1  0.50000000  0.49760890  0.38837269  1
  C  C59  1  0.50000000  0.50052721  0.72219991  1
  C  C60  1  0.50000000  0.55709492  0.06227094  1
  C  C61  1  0.50000000  0.55611970  0.38544755  1
  C  C62  1  0.50000000  0.56092153  0.72245839  1
  C  C63  1  0.50000000  0.62144935  0.72255172  1
  C  C64  1  0.50000000  0.68185655  0.05386955  1
  C  C65  1  0.50000000  0.68165435  0.38982713  1
  C  C66  1  0.50000000  0.68234539  0.72247695  1
  C  C67  1  0.50000000  0.74137175  0.05654793  1
  C  C68  1  0.50000000  0.74107269  0.39032203  1
  C  C69  1  0.50000000  0.74176788  0.72353383  1
  C  C70  1  0.50000000  0.25883883  0.10883256  1
  C  C71  1  0.50000000  0.25917366  0.44421945  1
  C  C72  1  0.50000000  0.26035599  0.77656060  1
  C  C73  1  0.50000000  0.31809440  0.11068687  1
  C  C74  1  0.50000000  0.31851163  0.44495230  1
  C  C75  1  0.50000000  0.31983323  0.77775129  1
  C  C76  1  0.50000000  0.37810721  0.11073739  1
  C  C77  1  0.50000000  0.37867588  0.44472148  1
  C  C78  1  0.50000000  0.38015547  0.77773217  1
  C  C79  1  0.50000000  0.43782604  0.11077559  1
  C  C80  1  0.50000000  0.43863222  0.44454702  1
  C  C81  1  0.50000000  0.44035547  0.77772815  1
  C  C82  1  0.50000000  0.49759362  0.11163613  1
  C  C83  1  0.50000000  0.49877501  0.44404011  1
  C  C84  1  0.50000000  0.50052476  0.77779167  1
  C  C85  1  0.50000000  0.55607963  0.11461301  1
  C  C86  1  0.50000000  0.55706280  0.43779223  1
  C  C87  1  0.50000000  0.56091717  0.77754873  1
  C  C88  1  0.50000000  0.62144211  0.77746126  1
  C  C89  1  0.50000000  0.68158684  0.11020387  1
  C  C90  1  0.50000000  0.68192463  0.44618170  1
  C  C91  1  0.50000000  0.68232809  0.77756480  1
  C  C92  1  0.50000000  0.74103194  0.10965764  1
  C  C93  1  0.50000000  0.74141921  0.44342927  1
  C  C94  1  0.50000000  0.74174680  0.77660633  1
  C  C95  1  0.50000000  0.28802796  0.13822440  1
  C  C96  1  0.50000000  0.28870663  0.47287037  1
  C  C97  1  0.50000000  0.28980788  0.80521541  1
  C  C98  1  0.50000000  0.34803378  0.13880598  1
  C  C99  1  0.50000000  0.34877696  0.47280108  1
  C  C100  1  0.50000000  0.34998295  0.80564045  1
  C  C101  1  0.50000000  0.40784011  0.13868573  1
  C  C102  1  0.50000000  0.40883950  0.47250427  1
  C  C103  1  0.50000000  0.41016175  0.80551974  1
  C  C104  1  0.50000000  0.46747230  0.13901596  1
  C  C105  1  0.50000000  0.46902534  0.47228221  1
  C  C106  1  0.50000000  0.47051042  0.80574459  1
  C  C107  1  0.50000000  0.52654026  0.14112298  1
  C  C108  1  0.50000000  0.52938841  0.47088921  1
  C  C109  1  0.50000000  0.53065385  0.80548622  1
  C  C110  1  0.50000000  0.59115920  0.80475687  1
  C  C111  1  0.50000000  0.65218638  0.13928840  1
  C  C112  1  0.50000000  0.65293417  0.47560054  1
  C  C113  1  0.50000000  0.65196541  0.80471863  1
  C  C114  1  0.50000000  0.71136781  0.13823280  1
  C  C115  1  0.50000000  0.71220925  0.47301659  1
  C  C116  1  0.50000000  0.71232402  0.80513123  1
  C  C117  1  0.50000000  0.28783003  0.19413617  1
  C  C118  1  0.50000000  0.28911942  0.52856422  1
  C  C119  1  0.50000000  0.28963920  0.86080316  1
  C  C120  1  0.50000000  0.34779155  0.19410525  1
  C  C121  1  0.50000000  0.34926739  0.52797364  1
  C  C122  1  0.50000000  0.34981900  0.86079534  1
  C  C123  1  0.50000000  0.40755827  0.19423294  1
  C  C124  1  0.50000000  0.40951140  0.52801447  1
  C  C125  1  0.50000000  0.41006703  0.86112769  1
  C  C126  1  0.50000000  0.46711673  0.19416049  1
  C  C127  1  0.50000000  0.47000265  0.52752254  1
  C  C128  1  0.50000000  0.47053133  0.86130635  1
  C  C129  1  0.50000000  0.52659545  0.19584940  1
  C  C130  1  0.50000000  0.53080103  0.52684083  1
  C  C131  1  0.50000000  0.53063363  0.86072433  1
  C  C132  1  0.50000000  0.59238360  0.53457462  1
  C  C133  1  0.50000000  0.59118238  0.85996823  1
  C  C134  1  0.50000000  0.65196068  0.19252862  1
  C  C135  1  0.50000000  0.65227839  0.52954144  1
  C  C136  1  0.50000000  0.65215376  0.85919982  1
  C  C137  1  0.50000000  0.71116771  0.19425116  1
  C  C138  1  0.50000000  0.71234181  0.52874219  1
  C  C139  1  0.50000000  0.71235040  0.86069252  1
  C  C140  1  0.50000000  0.25848411  0.22328036  1
  C  C141  1  0.50000000  0.25985376  0.55758965  1
  C  C142  1  0.50000000  0.26008160  0.88925737  1
  C  C143  1  0.50000000  0.31770937  0.22206204  1
  C  C144  1  0.50000000  0.31923736  0.55598923  1
  C  C145  1  0.50000000  0.31954656  0.88847648  1
  C  C146  1  0.50000000  0.37769557  0.22223811  1
  C  C147  1  0.50000000  0.37955350  0.55577588  1
  C  C148  1  0.50000000  0.37988872  0.88880912  1
  C  C149  1  0.50000000  0.43728063  0.22230651  1
  C  C150  1  0.50000000  0.43988567  0.55567874  1
  C  C151  1  0.50000000  0.44013972  0.88902438  1
  C  C152  1  0.50000000  0.49671652  0.22253992  1
  C  C153  1  0.50000000  0.50072067  0.55483144  1
  C  C154  1  0.50000000  0.50062205  0.88911186  1
  C  C155  1  0.50000000  0.55625396  0.22366524  1
  C  C156  1  0.50000000  0.56126593  0.55666225  1
  C  C157  1  0.50000000  0.56092754  0.88795374  1
  C  C158  1  0.50000000  0.62203854  0.55959147  1
  C  C159  1  0.50000000  0.62188730  0.88600555  1
  C  C160  1  0.50000000  0.68122373  0.22196909  1
  C  C161  1  0.50000000  0.68250287  0.55691514  1
  C  C162  1  0.50000000  0.68232629  0.88766387  1
  C  C163  1  0.50000000  0.74057647  0.22337900  1
  C  C164  1  0.50000000  0.74186336  0.55737437  1
  C  C165  1  0.50000000  0.74179679  0.88959797  1
  C  C166  1  0.50000000  0.25848525  0.27656213  1
  C  C167  1  0.50000000  0.26005763  0.61068830  1
  C  C168  1  0.50000000  0.25986537  0.94235652  1
  C  C169  1  0.50000000  0.31773370  0.27782767  1
  C  C170  1  0.50000000  0.31950350  0.61151275  1
  C  C171  1  0.50000000  0.31927607  0.94398036  1
  C  C172  1  0.50000000  0.37770381  0.27776528  1
  C  C173  1  0.50000000  0.37986735  0.61117746  1
  C  C174  1  0.50000000  0.37957517  0.94421427  1
  C  C175  1  0.50000000  0.43728643  0.27771285  1
  C  C176  1  0.50000000  0.44012956  0.61097819  1
  C  C177  1  0.50000000  0.43989796  0.94433465  1
  C  C178  1  0.50000000  0.49672892  0.27749271  1
  C  C179  1  0.50000000  0.50062323  0.61089308  1
  C  C180  1  0.50000000  0.50071671  0.94518305  1
  C  C181  1  0.50000000  0.55627219  0.27629818  1
  C  C182  1  0.50000000  0.56094912  0.61204280  1
  C  C183  1  0.50000000  0.56124275  0.94332715  1
  C  C184  1  0.50000000  0.62192360  0.61402096  1
  C  C185  1  0.50000000  0.62199960  0.94043271  1
  C  C186  1  0.50000000  0.68121678  0.27810134  1
  C  C187  1  0.50000000  0.68238149  0.61237728  1
  C  C188  1  0.50000000  0.68245734  0.94312128  1
  C  C189  1  0.50000000  0.74058838  0.27649111  1
  C  C190  1  0.50000000  0.74184695  0.61043435  1
  C  C191  1  0.50000000  0.74182637  0.94267368  1
  H  H192  1  0.50000000  0.23590298  0.03536441  1
  H  H193  1  0.50000000  0.23535697  0.37120490  1
  H  H194  1  0.50000000  0.23690619  0.70358285  1
  H  H195  1  0.50000000  0.76491015  0.03686128  1
  H  H196  1  0.50000000  0.76435671  0.36997224  1
  H  H197  1  0.50000000  0.76516521  0.70351449  1
  H  H198  1  0.50000000  0.23528547  0.12841651  1
  H  H199  1  0.50000000  0.23586818  0.46451372  1
  H  H200  1  0.50000000  0.23696570  0.79664519  1
  H  H201  1  0.50000000  0.76428605  0.13011686  1
  H  H202  1  0.50000000  0.76499508  0.46296076  1
  H  H203  1  0.50000000  0.76510764  0.79674206  1
  H  H204  1  0.50000000  0.23505395  0.20327763  1
  H  H205  1  0.50000000  0.23637836  0.53781199  1
  H  H206  1  0.50000000  0.23677304  0.86894819  1
  H  H207  1  0.50000000  0.76399577  0.20338237  1
  H  H208  1  0.50000000  0.76523986  0.53723167  1
  H  H209  1  0.50000000  0.76518527  0.86950579  1
  H  H210  1  0.50000000  0.23501876  0.29645205  1
  H  H211  1  0.50000000  0.23669139  0.63080687  1
  H  H212  1  0.50000000  0.23641198  0.96221123  1
  H  H213  1  0.50000000  0.76405001  0.29635676  1
  H  H214  1  0.50000000  0.76529992  0.63032670  1
  H  H215  1  0.50000000  0.76516867  0.96293618  1
  H  H216  1  0.50000000  0.59546026  0.00597020  1
  H  H217  1  0.50000000  0.62853987  0.28776183  1
  H  H218  1  0.50000000  0.63006396  0.04584310  1
  H  H219  1  0.50000000  0.62895807  0.38110794  1
  H  H220  1  0.50000000  0.58165170  0.04935108  1
  H  H221  1  0.50000000  0.57915617  0.36478667  1
  H  H222  1  0.50000000  0.57906389  0.13543156  1
  H  H223  1  0.50000000  0.58154990  0.45100990  1
  H  H224  1  0.50000000  0.62893000  0.11889629  1
  H  H225  1  0.50000000  0.63011669  0.45416665  1
  H  H226  1  0.50000000  0.59558099  0.49402031  1
  H  H227  1  0.50000000  0.62859186  0.21258390  1
  H  H228  1  0.50000000  0.57939780  0.20332003  1
  H  H229  1  0.50000000  0.57944415  0.29656610  1
