# generated using pymatgen
data_H19C96
_symmetry_space_group_name_H-M   'P 1'
_cell_length_a   10.00000000
_cell_length_b   41.10890000
_cell_length_c   25.84280214
_cell_angle_alpha   90.00000000
_cell_angle_beta   90.00000000
_cell_angle_gamma   90.00000000
_symmetry_Int_Tables_number   1
_chemical_formula_structural   H19C96
_chemical_formula_sum   'H38 C192'
_cell_volume   10623.69168858
_cell_formula_units_Z   2
loop_
 _symmetry_equiv_pos_site_id
 _symmetry_equiv_pos_as_xyz
  1  'x, y, z'
loop_
 _atom_site_type_symbol
 _atom_site_label
 _atom_site_symmetry_multiplicity
 _atom_site_fract_x
 _atom_site_fract_y
 _atom_site_fract_z
 _atom_site_occupancy
  C  C0  1  0.50000000  0.28875863  0.30525042  1
  C  C1  1  0.50000000  0.28784848  0.63861572  1
  C  C2  1  0.50000000  0.28816471  0.97248437  1
  C  C3  1  0.50000000  0.34884635  0.30575629  1
  C  C4  1  0.50000000  0.34796837  0.63907793  1
  C  C5  1  0.50000000  0.34821885  0.97247314  1
  C  C6  1  0.50000000  0.40886406  0.30564193  1
  C  C7  1  0.50000000  0.40795769  0.63905201  1
  C  C8  1  0.50000000  0.40819214  0.97200900  1
  C  C9  1  0.50000000  0.46905672  0.30581661  1
  C  C10  1  0.50000000  0.46810121  0.63947329  1
  C  C11  1  0.50000000  0.46828902  0.97150629  1
  C  C12  1  0.50000000  0.52823983  0.30731320  1
  C  C13  1  0.50000000  0.52814221  0.64040321  1
  C  C14  1  0.50000000  0.52815596  0.97074970  1
  C  C15  1  0.50000000  0.58899152  0.63951326  1
  C  C16  1  0.50000000  0.58819432  0.96654029  1
  C  C17  1  0.50000000  0.65857970  0.30404492  1
  C  C18  1  0.50000000  0.64923255  0.63915751  1
  C  C19  1  0.50000000  0.65014980  0.97372042  1
  C  C20  1  0.50000000  0.71848306  0.30638343  1
  C  C21  1  0.50000000  0.70914807  0.63935906  1
  C  C22  1  0.50000000  0.71091466  0.97061274  1
  C  C23  1  0.50000000  0.28834381  0.02834212  1
  C  C24  1  0.50000000  0.28860614  0.36099616  1
  C  C25  1  0.50000000  0.28776611  0.69455058  1
  C  C26  1  0.50000000  0.34843212  0.02771679  1
  C  C27  1  0.50000000  0.34868552  0.36094854  1
  C  C28  1  0.50000000  0.34788345  0.69434177  1
  C  C29  1  0.50000000  0.40837998  0.02760200  1
  C  C30  1  0.50000000  0.40873378  0.36134655  1
  C  C31  1  0.50000000  0.40788673  0.69454936  1
  C  C32  1  0.50000000  0.46839771  0.02693698  1
  C  C33  1  0.50000000  0.46895882  0.36162015  1
  C  C34  1  0.50000000  0.46807799  0.69477215  1
  C  C35  1  0.50000000  0.52743127  0.02489562  1
  C  C36  1  0.50000000  0.52811293  0.36068392  1
  C  C37  1  0.50000000  0.52829188  0.69514470  1
  C  C38  1  0.50000000  0.58887761  0.69488108  1
  C  C39  1  0.50000000  0.65280997  0.02934896  1
  C  C40  1  0.50000000  0.65782051  0.35855430  1
  C  C41  1  0.50000000  0.64900737  0.69423701  1
  C  C42  1  0.50000000  0.71317084  0.02589651  1
  C  C43  1  0.50000000  0.71735650  0.36235348  1
  C  C44  1  0.50000000  0.70897582  0.69486265  1
  C  C45  1  0.50000000  0.25905556  0.05731366  1
  C  C46  1  0.50000000  0.25917856  0.38960718  1
  C  C47  1  0.50000000  0.25842332  0.72347865  1
  C  C48  1  0.50000000  0.31838317  0.05577370  1
  C  C49  1  0.50000000  0.31849491  0.38873965  1
  C  C50  1  0.50000000  0.31772707  0.72225684  1
  C  C51  1  0.50000000  0.37852589  0.05553381  1
  C  C52  1  0.50000000  0.37868657  0.38899705  1
  C  C53  1  0.50000000  0.37791558  0.72226337  1
  C  C54  1  0.50000000  0.43848212  0.05530310  1
  C  C55  1  0.50000000  0.43866482  0.38941901  1
  C  C56  1  0.50000000  0.43794050  0.72244000  1
  C  C57  1  0.50000000  0.49859930  0.05409201  1
  C  C58  1  0.50000000  0.49880704  0.38958694  1
  C  C59  1  0.50000000  0.49810147  0.72244132  1
  C  C60  1  0.50000000  0.55868008  0.72250029  1
  C  C61  1  0.50000000  0.62559122  0.06339491  1
  C  C62  1  0.50000000  0.62770623  0.38416722  1
  C  C63  1  0.50000000  0.61890807  0.72232469  1
  C  C64  1  0.50000000  0.68408189  0.05533671  1
  C  C65  1  0.50000000  0.68659513  0.38871764  1
  C  C66  1  0.50000000  0.67901050  0.72224098  1
  C  C67  1  0.50000000  0.74357556  0.05273581  1
  C  C68  1  0.50000000  0.74570138  0.39391488  1
  C  C69  1  0.50000000  0.73843852  0.72351062  1
  C  C70  1  0.50000000  0.25921310  0.11049010  1
  C  C71  1  0.50000000  0.25904086  0.44278321  1
  C  C72  1  0.50000000  0.25843640  0.77675488  1
  C  C73  1  0.50000000  0.31855420  0.11133174  1
  C  C74  1  0.50000000  0.31833594  0.44431194  1
  C  C75  1  0.50000000  0.31773735  0.77788302  1
  C  C76  1  0.50000000  0.37873361  0.11108667  1
  C  C77  1  0.50000000  0.37848439  0.44454909  1
  C  C78  1  0.50000000  0.37792146  0.77782076  1
  C  C79  1  0.50000000  0.43870971  0.11065070  1
  C  C80  1  0.50000000  0.43844046  0.44475950  1
  C  C81  1  0.50000000  0.43794301  0.77760940  1
  C  C82  1  0.50000000  0.49885906  0.11048603  1
  C  C83  1  0.50000000  0.49855518  0.44597111  1
  C  C84  1  0.50000000  0.49809909  0.77757506  1
  C  C85  1  0.50000000  0.55867275  0.77749088  1
  C  C86  1  0.50000000  0.62768566  0.11566201  1
  C  C87  1  0.50000000  0.62556664  0.43644221  1
  C  C88  1  0.50000000  0.61889426  0.77760469  1
  C  C89  1  0.50000000  0.68659029  0.11113094  1
  C  C90  1  0.50000000  0.68407279  0.44453133  1
  C  C91  1  0.50000000  0.67899308  0.77767603  1
  C  C92  1  0.50000000  0.74569920  0.10587760  1
  C  C93  1  0.50000000  0.74358508  0.44705930  1
  C  C94  1  0.50000000  0.73841391  0.77651134  1
  C  C95  1  0.50000000  0.28866465  0.13903435  1
  C  C96  1  0.50000000  0.28831005  0.47178452  1
  C  C97  1  0.50000000  0.28778880  0.80561796  1
  C  C98  1  0.50000000  0.34873489  0.13913783  1
  C  C99  1  0.50000000  0.34838824  0.47236538  1
  C  C100  1  0.50000000  0.34789777  0.80576846  1
  C  C101  1  0.50000000  0.40878608  0.13874738  1
  C  C102  1  0.50000000  0.40833899  0.47246588  1
  C  C103  1  0.50000000  0.40789538  0.80551748  1
  C  C104  1  0.50000000  0.46900391  0.13842637  1
  C  C105  1  0.50000000  0.46835747  0.47311826  1
  C  C106  1  0.50000000  0.46807969  0.80526400  1
  C  C107  1  0.50000000  0.52814546  0.13945575  1
  C  C108  1  0.50000000  0.52741364  0.47510017  1
  C  C109  1  0.50000000  0.52828809  0.80485376  1
  C  C110  1  0.50000000  0.58887425  0.80509246  1
  C  C111  1  0.50000000  0.65780475  0.14127864  1
  C  C112  1  0.50000000  0.65278431  0.47053466  1
  C  C113  1  0.50000000  0.64898756  0.80568959  1
  C  C114  1  0.50000000  0.71735496  0.13747135  1
  C  C115  1  0.50000000  0.71318185  0.47395661  1
  C  C116  1  0.50000000  0.70893290  0.80508423  1
  C  C117  1  0.50000000  0.28879574  0.19476143  1
  C  C118  1  0.50000000  0.28812128  0.52765580  1
  C  C119  1  0.50000000  0.28786065  0.86154975  1
  C  C120  1  0.50000000  0.34887493  0.19433233  1
  C  C121  1  0.50000000  0.34817548  0.52762520  1
  C  C122  1  0.50000000  0.34798404  0.86103264  1
  C  C123  1  0.50000000  0.40887532  0.19442868  1
  C  C124  1  0.50000000  0.40815863  0.52806271  1
  C  C125  1  0.50000000  0.40797304  0.86101433  1
  C  C126  1  0.50000000  0.46907580  0.19422799  1
  C  C127  1  0.50000000  0.46827471  0.52853535  1
  C  C128  1  0.50000000  0.46810773  0.86055318  1
  C  C129  1  0.50000000  0.52824560  0.19283301  1
  C  C130  1  0.50000000  0.52816986  0.52924086  1
  C  C131  1  0.50000000  0.52813033  0.85959059  1
  C  C132  1  0.50000000  0.58820183  0.53339115  1
  C  C133  1  0.50000000  0.58897683  0.86046061  1
  C  C134  1  0.50000000  0.65858392  0.19577953  1
  C  C135  1  0.50000000  0.65013704  0.52620211  1
  C  C136  1  0.50000000  0.64920834  0.86077096  1
  C  C137  1  0.50000000  0.71846371  0.19343910  1
  C  C138  1  0.50000000  0.71091175  0.52926719  1
  C  C139  1  0.50000000  0.70910002  0.86055528  1
  C  C140  1  0.50000000  0.25940181  0.22339911  1
  C  C141  1  0.50000000  0.25870682  0.55632722  1
  C  C142  1  0.50000000  0.25858442  0.89062808  1
  C  C143  1  0.50000000  0.31876411  0.22225515  1
  C  C144  1  0.50000000  0.31800063  0.55545631  1
  C  C145  1  0.50000000  0.31789092  0.88907226  1
  C  C146  1  0.50000000  0.37895300  0.22225179  1
  C  C147  1  0.50000000  0.37814418  0.55568364  1
  C  C148  1  0.50000000  0.37806478  0.88886798  1
  C  C149  1  0.50000000  0.43893161  0.22232507  1
  C  C150  1  0.50000000  0.43809318  0.55617406  1
  C  C151  1  0.50000000  0.43807303  0.88868464  1
  C  C152  1  0.50000000  0.49902859  0.22197327  1
  C  C153  1  0.50000000  0.49809535  0.55679010  1
  C  C154  1  0.50000000  0.49813993  0.88779012  1
  C  C155  1  0.50000000  0.55845392  0.55883768  1
  C  C156  1  0.50000000  0.55837794  0.88667383  1
  C  C157  1  0.50000000  0.62892619  0.22368839  1
  C  C158  1  0.50000000  0.61923024  0.55570151  1
  C  C159  1  0.50000000  0.61917644  0.88854947  1
  C  C160  1  0.50000000  0.68885054  0.22227646  1
  C  C161  1  0.50000000  0.67992731  0.55522066  1
  C  C162  1  0.50000000  0.67942224  0.88876928  1
  C  C163  1  0.50000000  0.74778654  0.22311879  1
  C  C164  1  0.50000000  0.73985382  0.55923537  1
  C  C165  1  0.50000000  0.73907007  0.88784956  1
  C  C166  1  0.50000000  0.25937855  0.27655623  1
  C  C167  1  0.50000000  0.25857222  0.60957141  1
  C  C168  1  0.50000000  0.25873777  0.94386594  1
  C  C169  1  0.50000000  0.31874928  0.27779278  1
  C  C170  1  0.50000000  0.31786953  0.61106220  1
  C  C171  1  0.50000000  0.31803683  0.94467066  1
  C  C172  1  0.50000000  0.37894247  0.27785850  1
  C  C173  1  0.50000000  0.37804100  0.61122116  1
  C  C174  1  0.50000000  0.37818035  0.94440330  1
  C  C175  1  0.50000000  0.43892641  0.27768545  1
  C  C176  1  0.50000000  0.43805392  0.61136096  1
  C  C177  1  0.50000000  0.43811319  0.94387845  1
  C  C178  1  0.50000000  0.49902983  0.27813044  1
  C  C179  1  0.50000000  0.49814286  0.61221878  1
  C  C180  1  0.50000000  0.49808524  0.94321880  1
  C  C181  1  0.50000000  0.55839238  0.61330993  1
  C  C182  1  0.50000000  0.55845757  0.94114132  1
  C  C183  1  0.50000000  0.62892087  0.27608928  1
  C  C184  1  0.50000000  0.61918922  0.61141525  1
  C  C185  1  0.50000000  0.61920868  0.94426302  1
  C  C186  1  0.50000000  0.68885623  0.27756640  1
  C  C187  1  0.50000000  0.67944793  0.61114037  1
  C  C188  1  0.50000000  0.67992799  0.94467997  1
  C  C189  1  0.50000000  0.74780207  0.27666013  1
  C  C190  1  0.50000000  0.73913448  0.61203781  1
  C  C191  1  0.50000000  0.73982936  0.94062380  1
  H  H192  1  0.50000000  0.23562924  0.03738046  1
  H  H193  1  0.50000000  0.23584457  0.36942503  1
  H  H194  1  0.50000000  0.23498077  0.70353657  1
  H  H195  1  0.50000000  0.76630973  0.03078958  1
  H  H196  1  0.50000000  0.76984786  0.37605626  1
  H  H197  1  0.50000000  0.76188707  0.70371153  1
  H  H198  1  0.50000000  0.23593772  0.13086373  1
  H  H199  1  0.50000000  0.23560442  0.46265221  1
  H  H200  1  0.50000000  0.23503117  0.79682160  1
  H  H201  1  0.50000000  0.76989193  0.12356380  1
  H  H202  1  0.50000000  0.76632916  0.46895264  1
  H  H203  1  0.50000000  0.76180001  0.79649771  1
  H  H204  1  0.50000000  0.23605494  0.20324846  1
  H  H205  1  0.50000000  0.23536781  0.53612716  1
  H  H206  1  0.50000000  0.23509659  0.87084688  1
  H  H207  1  0.50000000  0.77125111  0.20311229  1
  H  H208  1  0.50000000  0.76343571  0.53981836  1
  H  H209  1  0.50000000  0.76215447  0.86702530  1
  H  H210  1  0.50000000  0.23598947  0.29658384  1
  H  H211  1  0.50000000  0.23511666  0.62945055  1
  H  H212  1  0.50000000  0.23543047  0.96417140  1
  H  H213  1  0.50000000  0.77130515  0.29654875  1
  H  H214  1  0.50000000  0.76217668  0.63303260  1
  H  H215  1  0.50000000  0.76350321  0.95971007  1
  H  H216  1  0.50000000  0.55171688  0.28749406  1
  H  H217  1  0.50000000  0.58510768  0.00729323  1
  H  H218  1  0.50000000  0.55024120  0.04625060  1
  H  H219  1  0.50000000  0.55154690  0.38064985  1
  H  H220  1  0.50000000  0.60090625  0.05059237  1
  H  H221  1  0.50000000  0.60502389  0.36245787  1
  H  H222  1  0.50000000  0.60494611  0.13721948  1
  H  H223  1  0.50000000  0.60085652  0.44918151  1
  H  H224  1  0.50000000  0.55159571  0.11955775  1
  H  H225  1  0.50000000  0.55016320  0.45355507  1
  H  H226  1  0.50000000  0.55167683  0.21280494  1
  H  H227  1  0.50000000  0.58512135  0.49260288  1
  H  H228  1  0.50000000  0.60567956  0.20362646  1
  H  H229  1  0.50000000  0.60562944  0.29601413  1
