# generated using pymatgen
data_H19C96
_symmetry_space_group_name_H-M   'P 1'
_cell_length_a   10.00000000
_cell_length_b   41.10890000
_cell_length_c   25.88701827
_cell_angle_alpha   90.00000000
_cell_angle_beta   90.00000000
_cell_angle_gamma   90.00000000
_symmetry_Int_Tables_number   1
_chemical_formula_structural   H19C96
_chemical_formula_sum   'H38 C192'
_cell_volume   10641.86845499
_cell_formula_units_Z   2
loop_
 _symmetry_equiv_pos_site_id
 _symmetry_equiv_pos_as_xyz
  1  'x, y, z'
loop_
 _atom_site_type_symbol
 _atom_site_label
 _atom_site_symmetry_multiplicity
 _atom_site_fract_x
 _atom_site_fract_y
 _atom_site_fract_z
 _atom_site_occupancy
  C  C0  1  0.50000000  0.28916194  0.30521885  1
  C  C1  1  0.50000000  0.28808256  0.63856939  1
  C  C2  1  0.50000000  0.28842112  0.97214240  1
  C  C3  1  0.50000000  0.34933658  0.30559206  1
  C  C4  1  0.50000000  0.34822274  0.63911910  1
  C  C5  1  0.50000000  0.34852756  0.97197981  1
  C  C6  1  0.50000000  0.40924996  0.30598460  1
  C  C7  1  0.50000000  0.40814713  0.63951227  1
  C  C8  1  0.50000000  0.40839977  0.97137710  1
  C  C9  1  0.50000000  0.46827072  0.30720790  1
  C  C10  1  0.50000000  0.46814609  0.64046743  1
  C  C11  1  0.50000000  0.46820109  0.97024214  1
  C  C12  1  0.50000000  0.52903830  0.63978199  1
  C  C13  1  0.50000000  0.52806817  0.96582327  1
  C  C14  1  0.50000000  0.59532734  0.30394718  1
  C  C15  1  0.50000000  0.58943394  0.63907235  1
  C  C16  1  0.50000000  0.58961637  0.97344847  1
  C  C17  1  0.50000000  0.65493250  0.30590948  1
  C  C18  1  0.50000000  0.64927384  0.63875681  1
  C  C19  1  0.50000000  0.65032645  0.97243073  1
  C  C20  1  0.50000000  0.71476514  0.30609639  1
  C  C21  1  0.50000000  0.70952145  0.63926272  1
  C  C22  1  0.50000000  0.71071388  0.97067280  1
  C  C23  1  0.50000000  0.28863986  0.02821308  1
  C  C24  1  0.50000000  0.28902913  0.36128181  1
  C  C25  1  0.50000000  0.28799427  0.69461921  1
  C  C26  1  0.50000000  0.34874646  0.02748020  1
  C  C27  1  0.50000000  0.34921826  0.36132759  1
  C  C28  1  0.50000000  0.34815208  0.69451317  1
  C  C29  1  0.50000000  0.40852105  0.02676600  1
  C  C30  1  0.50000000  0.40917713  0.36164806  1
  C  C31  1  0.50000000  0.40813417  0.69473400  1
  C  C32  1  0.50000000  0.46750986  0.02470330  1
  C  C33  1  0.50000000  0.46816623  0.36078881  1
  C  C34  1  0.50000000  0.46832442  0.69540551  1
  C  C35  1  0.50000000  0.52903052  0.69509372  1
  C  C36  1  0.50000000  0.59140625  0.02960331  1
  C  C37  1  0.50000000  0.59507209  0.35876823  1
  C  C38  1  0.50000000  0.58931966  0.69441641  1
  C  C39  1  0.50000000  0.65176912  0.02752834  1
  C  C40  1  0.50000000  0.65424376  0.36099131  1
  C  C41  1  0.50000000  0.64914482  0.69422349  1
  C  C42  1  0.50000000  0.71188265  0.02647639  1
  C  C43  1  0.50000000  0.71412827  0.36231301  1
  C  C44  1  0.50000000  0.70927627  0.69505276  1
  C  C45  1  0.50000000  0.25953779  0.05702793  1
  C  C46  1  0.50000000  0.25974350  0.38961378  1
  C  C47  1  0.50000000  0.25879273  0.72334212  1
  C  C48  1  0.50000000  0.31873376  0.05558774  1
  C  C49  1  0.50000000  0.31894096  0.38894517  1
  C  C50  1  0.50000000  0.31796990  0.72224563  1
  C  C51  1  0.50000000  0.37868993  0.05495460  1
  C  C52  1  0.50000000  0.37891395  0.38924235  1
  C  C53  1  0.50000000  0.37804969  0.72222287  1
  C  C54  1  0.50000000  0.43889298  0.05378648  1
  C  C55  1  0.50000000  0.43910048  0.38960082  1
  C  C56  1  0.50000000  0.43819919  0.72244063  1
  C  C57  1  0.50000000  0.49874351  0.72247005  1
  C  C58  1  0.50000000  0.56393376  0.06288425  1
  C  C59  1  0.50000000  0.56537935  0.38482137  1
  C  C60  1  0.50000000  0.55916282  0.72233429  1
  C  C61  1  0.50000000  0.62219360  0.05607223  1
  C  C62  1  0.50000000  0.62390930  0.38823740  1
  C  C63  1  0.50000000  0.61925926  0.72213198  1
  C  C64  1  0.50000000  0.68244345  0.05484480  1
  C  C65  1  0.50000000  0.68384729  0.38949102  1
  C  C66  1  0.50000000  0.67922458  0.72227717  1
  C  C67  1  0.50000000  0.74170556  0.05425426  1
  C  C68  1  0.50000000  0.74287457  0.39256227  1
  C  C69  1  0.50000000  0.73858115  0.72345971  1
  C  C70  1  0.50000000  0.25973973  0.11040933  1
  C  C71  1  0.50000000  0.25954712  0.44298695  1
  C  C72  1  0.50000000  0.25879617  0.77674750  1
  C  C73  1  0.50000000  0.31895457  0.11104733  1
  C  C74  1  0.50000000  0.31872067  0.44441664  1
  C  C75  1  0.50000000  0.31797118  0.77777925  1
  C  C76  1  0.50000000  0.37893186  0.11076608  1
  C  C77  1  0.50000000  0.37867717  0.44504586  1
  C  C78  1  0.50000000  0.37805311  0.77777323  1
  C  C79  1  0.50000000  0.43912764  0.11043182  1
  C  C80  1  0.50000000  0.43886494  0.44622217  1
  C  C81  1  0.50000000  0.43819814  0.77753825  1
  C  C82  1  0.50000000  0.49874168  0.77749455  1
  C  C83  1  0.50000000  0.56537812  0.11521187  1
  C  C84  1  0.50000000  0.56396103  0.43714232  1
  C  C85  1  0.50000000  0.55916611  0.77764161  1
  C  C86  1  0.50000000  0.62391139  0.11174674  1
  C  C87  1  0.50000000  0.62220226  0.44390959  1
  C  C88  1  0.50000000  0.61926079  0.77783625  1
  C  C89  1  0.50000000  0.68383393  0.11048548  1
  C  C90  1  0.50000000  0.68243609  0.44512890  1
  C  C91  1  0.50000000  0.67921433  0.77768337  1
  C  C92  1  0.50000000  0.74286325  0.10750795  1
  C  C93  1  0.50000000  0.74168275  0.44580774  1
  C  C94  1  0.50000000  0.73857748  0.77658280  1
  C  C95  1  0.50000000  0.28904471  0.13869152  1
  C  C96  1  0.50000000  0.28862643  0.47182692  1
  C  C97  1  0.50000000  0.28800570  0.80543142  1
  C  C98  1  0.50000000  0.34922798  0.13868166  1
  C  C99  1  0.50000000  0.34873624  0.47251583  1
  C  C100  1  0.50000000  0.34815690  0.80549476  1
  C  C101  1  0.50000000  0.40919139  0.13836460  1
  C  C102  1  0.50000000  0.40850273  0.47323377  1
  C  C103  1  0.50000000  0.40813547  0.80526103  1
  C  C104  1  0.50000000  0.46819278  0.13926664  1
  C  C105  1  0.50000000  0.46748859  0.47526274  1
  C  C106  1  0.50000000  0.46832462  0.80455866  1
  C  C107  1  0.50000000  0.52902833  0.80486834  1
  C  C108  1  0.50000000  0.59508404  0.14121521  1
  C  C109  1  0.50000000  0.59143127  0.47040249  1
  C  C110  1  0.50000000  0.58932030  0.80555512  1
  C  C111  1  0.50000000  0.65423895  0.13900018  1
  C  C112  1  0.50000000  0.65177232  0.47245097  1
  C  C113  1  0.50000000  0.64914262  0.80574815  1
  C  C114  1  0.50000000  0.71409533  0.13768050  1
  C  C115  1  0.50000000  0.71185640  0.47352194  1
  C  C116  1  0.50000000  0.70925529  0.80492641  1
  C  C117  1  0.50000000  0.28917754  0.19475345  1
  C  C118  1  0.50000000  0.28840097  0.52790901  1
  C  C119  1  0.50000000  0.28807957  0.86148165  1
  C  C120  1  0.50000000  0.34934804  0.19441649  1
  C  C121  1  0.50000000  0.34851863  0.52803317  1
  C  C122  1  0.50000000  0.34822906  0.86089011  1
  C  C123  1  0.50000000  0.40925731  0.19403764  1
  C  C124  1  0.50000000  0.40838837  0.52862301  1
  C  C125  1  0.50000000  0.40815254  0.86048186  1
  C  C126  1  0.50000000  0.46828186  0.19286135  1
  C  C127  1  0.50000000  0.46818891  0.52971490  1
  C  C128  1  0.50000000  0.46814582  0.85949001  1
  C  C129  1  0.50000000  0.52805324  0.53407434  1
  C  C130  1  0.50000000  0.52903937  0.86017426  1
  C  C131  1  0.50000000  0.59534324  0.19602910  1
  C  C132  1  0.50000000  0.58961957  0.52654099  1
  C  C133  1  0.50000000  0.58943647  0.86089991  1
  C  C134  1  0.50000000  0.65492833  0.19408817  1
  C  C135  1  0.50000000  0.65032454  0.52755553  1
  C  C136  1  0.50000000  0.64926697  0.86121703  1
  C  C137  1  0.50000000  0.71473362  0.19389178  1
  C  C138  1  0.50000000  0.71069364  0.52930072  1
  C  C139  1  0.50000000  0.70949629  0.86070668  1
  C  C140  1  0.50000000  0.26000214  0.22326697  1
  C  C141  1  0.50000000  0.25911828  0.55632688  1
  C  C142  1  0.50000000  0.25894822  0.89037584  1
  C  C143  1  0.50000000  0.31923768  0.22224054  1
  C  C144  1  0.50000000  0.31829393  0.55564156  1
  C  C145  1  0.50000000  0.31813849  0.88887776  1
  C  C146  1  0.50000000  0.37917849  0.22209813  1
  C  C147  1  0.50000000  0.37823292  0.55602416  1
  C  C148  1  0.50000000  0.37815861  0.88837975  1
  C  C149  1  0.50000000  0.43925485  0.22180780  1
  C  C150  1  0.50000000  0.43823097  0.55691965  1
  C  C151  1  0.50000000  0.43826705  0.88763108  1
  C  C152  1  0.50000000  0.49832663  0.55924844  1
  C  C153  1  0.50000000  0.49839110  0.88621822  1
  C  C154  1  0.50000000  0.56574013  0.22369598  1
  C  C155  1  0.50000000  0.55905086  0.55626382  1
  C  C156  1  0.50000000  0.55923361  0.88813213  1
  C  C157  1  0.50000000  0.62527445  0.22251918  1
  C  C158  1  0.50000000  0.61950084  0.55459039  1
  C  C159  1  0.50000000  0.61937010  0.88917587  1
  C  C160  1  0.50000000  0.68500787  0.22203104  1
  C  C161  1  0.50000000  0.68026518  0.55604728  1
  C  C162  1  0.50000000  0.67976072  0.88856256  1
  C  C163  1  0.50000000  0.74398104  0.22324018  1
  C  C164  1  0.50000000  0.73973957  0.55851726  1
  C  C165  1  0.50000000  0.73916604  0.88834947  1
  C  C166  1  0.50000000  0.25999627  0.27666368  1
  C  C167  1  0.50000000  0.25896138  0.60970019  1
  C  C168  1  0.50000000  0.25912654  0.94376548  1
  C  C169  1  0.50000000  0.31922829  0.27774299  1
  C  C170  1  0.50000000  0.31813521  0.61113670  1
  C  C171  1  0.50000000  0.31830053  0.94438377  1
  C  C172  1  0.50000000  0.37917093  0.27792318  1
  C  C173  1  0.50000000  0.37815165  0.61162028  1
  C  C174  1  0.50000000  0.37823899  0.94398074  1
  C  C175  1  0.50000000  0.43925231  0.27823115  1
  C  C176  1  0.50000000  0.43825896  0.61234840  1
  C  C177  1  0.50000000  0.43823760  0.94306159  1
  C  C178  1  0.50000000  0.49839125  0.61372794  1
  C  C179  1  0.50000000  0.49833266  0.94068692  1
  C  C180  1  0.50000000  0.56572882  0.27624284  1
  C  C181  1  0.50000000  0.55922834  0.61181953  1
  C  C182  1  0.50000000  0.55906414  0.94367317  1
  C  C183  1  0.50000000  0.62527251  0.27747860  1
  C  C184  1  0.50000000  0.61937019  0.61081400  1
  C  C185  1  0.50000000  0.61950160  0.94539992  1
  C  C186  1  0.50000000  0.68501946  0.27798310  1
  C  C187  1  0.50000000  0.67976874  0.61141693  1
  C  C188  1  0.50000000  0.68027268  0.94393972  1
  C  C189  1  0.50000000  0.74399829  0.27668457  1
  C  C190  1  0.50000000  0.73918304  0.61156558  1
  C  C191  1  0.50000000  0.73974284  0.94138813  1
  H  H192  1  0.50000000  0.23605216  0.03727258  1
  H  H193  1  0.50000000  0.23633379  0.36961966  1
  H  H194  1  0.50000000  0.23532003  0.70351990  1
  H  H195  1  0.50000000  0.76474478  0.03323584  1
  H  H196  1  0.50000000  0.76675512  0.37391234  1
  H  H197  1  0.50000000  0.76199062  0.70354978  1
  H  H198  1  0.50000000  0.23641286  0.13066021  1
  H  H199  1  0.50000000  0.23601230  0.46256073  1
  H  H200  1  0.50000000  0.23535713  0.79668142  1
  H  H201  1  0.50000000  0.76668896  0.12636519  1
  H  H202  1  0.50000000  0.76469608  0.46689164  1
  H  H203  1  0.50000000  0.76195817  0.79660098  1
  H  H204  1  0.50000000  0.23654246  0.20339784  1
  H  H205  1  0.50000000  0.23573782  0.53624323  1
  H  H206  1  0.50000000  0.23543914  0.87067681  1
  H  H207  1  0.50000000  0.76743018  0.20330277  1
  H  H208  1  0.50000000  0.76333698  0.53906359  1
  H  H209  1  0.50000000  0.76234436  0.86772430  1
  H  H210  1  0.50000000  0.23650532  0.29642437  1
  H  H211  1  0.50000000  0.23545481  0.62940122  1
  H  H212  1  0.50000000  0.23579334  0.96398870  1
  H  H213  1  0.50000000  0.76748029  0.29651807  1
  H  H214  1  0.50000000  0.76236601  0.63217621  1
  H  H215  1  0.50000000  0.76338973  0.96064276  1
  H  H216  1  0.50000000  0.49175360  0.28743796  1
  H  H217  1  0.50000000  0.52503349  0.00637714  1
  H  H218  1  0.50000000  0.49041096  0.04582354  1
  H  H219  1  0.50000000  0.49162906  0.38061744  1
  H  H220  1  0.50000000  0.53932253  0.05003837  1
  H  H221  1  0.50000000  0.54245880  0.36387276  1
  H  H222  1  0.50000000  0.54251972  0.13635210  1
  H  H223  1  0.50000000  0.53935094  0.44999125  1
  H  H224  1  0.50000000  0.49164056  0.11938181  1
  H  H225  1  0.50000000  0.49037415  0.45409734  1
  H  H226  1  0.50000000  0.49171578  0.21278715  1
  H  H227  1  0.50000000  0.52499388  0.49349280  1
  H  H228  1  0.50000000  0.54254544  0.20352596  1
  H  H229  1  0.50000000  0.54250534  0.29632543  1
