# generated using pymatgen
data_H13C96
_symmetry_space_group_name_H-M   'P 1'
_cell_length_a   10.00000000
_cell_length_b   41.10890000
_cell_length_c   25.84374327
_cell_angle_alpha   90.00000000
_cell_angle_beta   90.00000000
_cell_angle_gamma   90.00000000
_symmetry_Int_Tables_number   1
_chemical_formula_structural   H13C96
_chemical_formula_sum   'H26 C192'
_cell_volume   10624.07857531
_cell_formula_units_Z   2
loop_
 _symmetry_equiv_pos_site_id
 _symmetry_equiv_pos_as_xyz
  1  'x, y, z'
loop_
 _atom_site_type_symbol
 _atom_site_label
 _atom_site_symmetry_multiplicity
 _atom_site_fract_x
 _atom_site_fract_y
 _atom_site_fract_z
 _atom_site_occupancy
  C  C0  1  0.50000000  0.28960536  0.30534346  1
  C  C1  1  0.50000000  0.28992608  0.63876576  1
  C  C2  1  0.50000000  0.28986516  0.97182786  1
  C  C3  1  0.50000000  0.34968548  0.30569674  1
  C  C4  1  0.50000000  0.35011931  0.63904334  1
  C  C5  1  0.50000000  0.35004099  0.97221312  1
  C  C6  1  0.50000000  0.40945780  0.30572178  1
  C  C7  1  0.50000000  0.41008335  0.63899682  1
  C  C8  1  0.50000000  0.40996456  0.97213391  1
  C  C9  1  0.50000000  0.46928567  0.30565793  1
  C  C10  1  0.50000000  0.47023754  0.63881537  1
  C  C11  1  0.50000000  0.47004472  0.97200490  1
  C  C12  1  0.50000000  0.52899551  0.30575905  1
  C  C13  1  0.50000000  0.53049072  0.63871477  1
  C  C14  1  0.50000000  0.53028122  0.97218231  1
  C  C15  1  0.50000000  0.58843381  0.30572990  1
  C  C16  1  0.50000000  0.59066733  0.63854754  1
  C  C17  1  0.50000000  0.59060865  0.97259492  1
  C  C18  1  0.50000000  0.64808416  0.30413870  1
  C  C19  1  0.50000000  0.65059294  0.63875772  1
  C  C20  1  0.50000000  0.65153437  0.97308188  1
  C  C21  1  0.50000000  0.71075810  0.64040010  1
  C  C22  1  0.50000000  0.71412167  0.96515646  1
  C  C23  1  0.50000000  0.28978296  0.02788013  1
  C  C24  1  0.50000000  0.28964860  0.36141807  1
  C  C25  1  0.50000000  0.28996013  0.69481136  1
  C  C26  1  0.50000000  0.34992178  0.02759732  1
  C  C27  1  0.50000000  0.34975220  0.36110248  1
  C  C28  1  0.50000000  0.35016501  0.69442823  1
  C  C29  1  0.50000000  0.40979088  0.02757870  1
  C  C30  1  0.50000000  0.40954800  0.36122867  1
  C  C31  1  0.50000000  0.41013181  0.69444252  1
  C  C32  1  0.50000000  0.46979968  0.02763075  1
  C  C33  1  0.50000000  0.46939980  0.36138283  1
  C  C34  1  0.50000000  0.47025468  0.69453766  1
  C  C35  1  0.50000000  0.52985165  0.02764850  1
  C  C36  1  0.50000000  0.52919861  0.36127168  1
  C  C37  1  0.50000000  0.53042302  0.69438968  1
  C  C38  1  0.50000000  0.58981585  0.02785631  1
  C  C39  1  0.50000000  0.58869212  0.36096513  1
  C  C40  1  0.50000000  0.59043702  0.69415388  1
  C  C41  1  0.50000000  0.65014076  0.02919327  1
  C  C42  1  0.50000000  0.64797707  0.35930202  1
  C  C43  1  0.50000000  0.65013255  0.69425120  1
  C  C44  1  0.50000000  0.71003967  0.69586958  1
  C  C45  1  0.50000000  0.26045567  0.05644879  1
  C  C46  1  0.50000000  0.26040470  0.39012541  1
  C  C47  1  0.50000000  0.26067105  0.72339838  1
  C  C48  1  0.50000000  0.31972354  0.05545255  1
  C  C49  1  0.50000000  0.31962223  0.38899883  1
  C  C50  1  0.50000000  0.31996537  0.72228883  1
  C  C51  1  0.50000000  0.37979985  0.05533545  1
  C  C52  1  0.50000000  0.37966743  0.38893019  1
  C  C53  1  0.50000000  0.38012715  0.72212205  1
  C  C54  1  0.50000000  0.43980618  0.05539083  1
  C  C55  1  0.50000000  0.43958919  0.38915077  1
  C  C56  1  0.50000000  0.44028729  0.72223464  1
  C  C57  1  0.50000000  0.49967881  0.05536332  1
  C  C58  1  0.50000000  0.49933792  0.38921875  1
  C  C59  1  0.50000000  0.50033751  0.72222570  1
  C  C60  1  0.50000000  0.55961222  0.05540499  1
  C  C61  1  0.50000000  0.55909248  0.38901093  1
  C  C62  1  0.50000000  0.56038054  0.72203968  1
  C  C63  1  0.50000000  0.61967491  0.05597413  1
  C  C64  1  0.50000000  0.61885313  0.38837684  1
  C  C65  1  0.50000000  0.62034028  0.72206418  1
  C  C66  1  0.50000000  0.67799880  0.06131791  1
  C  C67  1  0.50000000  0.67738463  0.38595833  1
  C  C68  1  0.50000000  0.68004285  0.72245972  1
  C  C69  1  0.50000000  0.73936945  0.72367138  1
  C  C70  1  0.50000000  0.26040957  0.10983046  1
  C  C71  1  0.50000000  0.26043977  0.44349781  1
  C  C72  1  0.50000000  0.26068057  0.77674749  1
  C  C73  1  0.50000000  0.31964644  0.11098880  1
  C  C74  1  0.50000000  0.31969106  0.44455228  1
  C  C75  1  0.50000000  0.31997298  0.77778418  1
  C  C76  1  0.50000000  0.37968509  0.11108003  1
  C  C77  1  0.50000000  0.37977622  0.44467542  1
  C  C78  1  0.50000000  0.38013337  0.77790524  1
  C  C79  1  0.50000000  0.43960379  0.11087337  1
  C  C80  1  0.50000000  0.43978892  0.44463059  1
  C  C81  1  0.50000000  0.44029041  0.77777117  1
  C  C82  1  0.50000000  0.49934073  0.11079725  1
  C  C83  1  0.50000000  0.49967155  0.44465259  1
  C  C84  1  0.50000000  0.50034341  0.77775275  1
  C  C85  1  0.50000000  0.55907014  0.11102367  1
  C  C86  1  0.50000000  0.55961460  0.44460172  1
  C  C87  1  0.50000000  0.56040189  0.77786120  1
  C  C88  1  0.50000000  0.61882683  0.11156696  1
  C  C89  1  0.50000000  0.61970232  0.44396966  1
  C  C90  1  0.50000000  0.62034399  0.77794642  1
  C  C91  1  0.50000000  0.67738435  0.11389977  1
  C  C92  1  0.50000000  0.67803760  0.43853931  1
  C  C93  1  0.50000000  0.68003705  0.77756025  1
  C  C94  1  0.50000000  0.73934953  0.77647968  1
  C  C95  1  0.50000000  0.28966462  0.13852941  1
  C  C96  1  0.50000000  0.28974594  0.47213169  1
  C  C97  1  0.50000000  0.28997788  0.80528623  1
  C  C98  1  0.50000000  0.34976943  0.13889721  1
  C  C99  1  0.50000000  0.34989150  0.47241030  1
  C  C100  1  0.50000000  0.35017829  0.80561724  1
  C  C101  1  0.50000000  0.40956115  0.13878758  1
  C  C102  1  0.50000000  0.40976802  0.47243610  1
  C  C103  1  0.50000000  0.41014150  0.80557480  1
  C  C104  1  0.50000000  0.46940769  0.13864928  1
  C  C105  1  0.50000000  0.46978672  0.47238740  1
  C  C106  1  0.50000000  0.47026008  0.80546455  1
  C  C107  1  0.50000000  0.52919068  0.13874870  1
  C  C108  1  0.50000000  0.52985028  0.47236160  1
  C  C109  1  0.50000000  0.53044715  0.80556502  1
  C  C110  1  0.50000000  0.58867665  0.13902442  1
  C  C111  1  0.50000000  0.58982562  0.47207357  1
  C  C112  1  0.50000000  0.59045433  0.80589510  1
  C  C113  1  0.50000000  0.64797321  0.14059234  1
  C  C114  1  0.50000000  0.65019622  0.47073816  1
  C  C115  1  0.50000000  0.65013664  0.80574985  1
  C  C116  1  0.50000000  0.71000862  0.80419748  1
  C  C117  1  0.50000000  0.28961993  0.19460043  1
  C  C118  1  0.50000000  0.28982612  0.52819505  1
  C  C119  1  0.50000000  0.28994424  0.86132696  1
  C  C120  1  0.50000000  0.34969502  0.19429424  1
  C  C121  1  0.50000000  0.35000682  0.52780959  1
  C  C122  1  0.50000000  0.35014026  0.86099105  1
  C  C123  1  0.50000000  0.40946660  0.19429484  1
  C  C124  1  0.50000000  0.40994001  0.52788437  1
  C  C125  1  0.50000000  0.41009912  0.86101673  1
  C  C126  1  0.50000000  0.46928972  0.19437235  1
  C  C127  1  0.50000000  0.47003168  0.52801211  1
  C  C128  1  0.50000000  0.47024589  0.86118733  1
  C  C129  1  0.50000000  0.52899125  0.19426354  1
  C  C130  1  0.50000000  0.53028181  0.52782292  1
  C  C131  1  0.50000000  0.53049682  0.86125694  1
  C  C132  1  0.50000000  0.58842374  0.19424289  1
  C  C133  1  0.50000000  0.59062195  0.52736082  1
  C  C134  1  0.50000000  0.59067001  0.86148443  1
  C  C135  1  0.50000000  0.64806914  0.19576363  1
  C  C136  1  0.50000000  0.65157833  0.52687175  1
  C  C137  1  0.50000000  0.65059500  0.86122123  1
  C  C138  1  0.50000000  0.71415208  0.53483886  1
  C  C139  1  0.50000000  0.71074939  0.85964533  1
  C  C140  1  0.50000000  0.26033862  0.22326047  1
  C  C141  1  0.50000000  0.26057268  0.55685593  1
  C  C142  1  0.50000000  0.26062109  0.88986513  1
  C  C143  1  0.50000000  0.31955514  0.22220656  1
  C  C144  1  0.50000000  0.31984018  0.55569497  1
  C  C145  1  0.50000000  0.31992415  0.88883220  1
  C  C146  1  0.50000000  0.37956491  0.22210364  1
  C  C147  1  0.50000000  0.37998021  0.55555720  1
  C  C148  1  0.50000000  0.38006950  0.88869882  1
  C  C149  1  0.50000000  0.43944230  0.22224377  1
  C  C150  1  0.50000000  0.44010131  0.55568896  1
  C  C151  1  0.50000000  0.44021401  0.88882952  1
  C  C152  1  0.50000000  0.49907969  0.22226465  1
  C  C153  1  0.50000000  0.50017922  0.55563703  1
  C  C154  1  0.50000000  0.50028642  0.88893923  1
  C  C155  1  0.50000000  0.55867969  0.22212880  1
  C  C156  1  0.50000000  0.56051345  0.55527872  1
  C  C157  1  0.50000000  0.56044441  0.88904875  1
  C  C158  1  0.50000000  0.61819230  0.22245968  1
  C  C159  1  0.50000000  0.62141255  0.55456353  1
  C  C160  1  0.50000000  0.62083625  0.88929832  1
  C  C161  1  0.50000000  0.67762489  0.22347710  1
  C  C162  1  0.50000000  0.68228422  0.55602193  1
  C  C163  1  0.50000000  0.68104980  0.88844631  1
  C  C164  1  0.50000000  0.74267772  0.56317614  1
  C  C165  1  0.50000000  0.74119909  0.88382586  1
  C  C166  1  0.50000000  0.26033093  0.27663779  1
  C  C167  1  0.50000000  0.26061614  0.61021109  1
  C  C168  1  0.50000000  0.26059037  0.94322934  1
  C  C169  1  0.50000000  0.31955053  0.27776470  1
  C  C170  1  0.50000000  0.31989753  0.61121645  1
  C  C171  1  0.50000000  0.31987653  0.94433862  1
  C  C172  1  0.50000000  0.37956079  0.27790371  1
  C  C173  1  0.50000000  0.38004718  0.61132246  1
  C  C174  1  0.50000000  0.38000842  0.94446263  1
  C  C175  1  0.50000000  0.43943693  0.27778367  1
  C  C176  1  0.50000000  0.44020035  0.61117975  1
  C  C177  1  0.50000000  0.44012002  0.94432383  1
  C  C178  1  0.50000000  0.49907813  0.27777460  1
  C  C179  1  0.50000000  0.50027621  0.61104679  1
  C  C180  1  0.50000000  0.50018743  0.94436742  1
  C  C181  1  0.50000000  0.55868332  0.27788208  1
  C  C182  1  0.50000000  0.56046006  0.61095227  1
  C  C183  1  0.50000000  0.56049760  0.94471703  1
  C  C184  1  0.50000000  0.61819839  0.27745849  1
  C  C185  1  0.50000000  0.62083479  0.61066023  1
  C  C186  1  0.50000000  0.62139489  0.94538048  1
  C  C187  1  0.50000000  0.67764659  0.27641786  1
  C  C188  1  0.50000000  0.68106867  0.61155162  1
  C  C189  1  0.50000000  0.68225166  0.94397959  1
  C  C190  1  0.50000000  0.74119923  0.61623799  1
  C  C191  1  0.50000000  0.74265201  0.93686715  1
  H  H192  1  0.50000000  0.23703811  0.03638489  1
  H  H193  1  0.50000000  0.23694792  0.37022459  1
  H  H194  1  0.50000000  0.23722086  0.70347780  1
  H  H195  1  0.50000000  0.76287578  0.70430373  1
  H  H196  1  0.50000000  0.23698125  0.12983133  1
  H  H197  1  0.50000000  0.23696420  0.46335800  1
  H  H198  1  0.50000000  0.23725770  0.79675986  1
  H  H199  1  0.50000000  0.76279237  0.79607314  1
  H  H200  1  0.50000000  0.23690625  0.20327474  1
  H  H201  1  0.50000000  0.23711056  0.53697596  1
  H  H202  1  0.50000000  0.23719789  0.86984153  1
  H  H203  1  0.50000000  0.76610472  0.54297750  1
  H  H204  1  0.50000000  0.76373645  0.86179614  1
  H  H205  1  0.50000000  0.23687137  0.29652863  1
  H  H206  1  0.50000000  0.23715811  0.63011149  1
  H  H207  1  0.50000000  0.23718943  0.96332144  1
  H  H208  1  0.50000000  0.76365946  0.63849491  1
  H  H209  1  0.50000000  0.76604846  0.95715357  1
  H  H210  1  0.50000000  0.71946868  0.00554374  1
  H  H211  1  0.50000000  0.70219421  0.04681128  1
  H  H212  1  0.50000000  0.70060319  0.36562659  1
  H  H213  1  0.50000000  0.70063265  0.13414203  1
  H  H214  1  0.50000000  0.70230381  0.45275811  1
  H  H215  1  0.50000000  0.71941384  0.49440549  1
  H  H216  1  0.50000000  0.70087786  0.20323553  1
  H  H217  1  0.50000000  0.70096072  0.29646407  1
