# generated using pymatgen
data_HC8
_symmetry_space_group_name_H-M   'P 1'
_cell_length_a   10.00000000
_cell_length_b   41.10890000
_cell_length_c   25.75123674
_cell_angle_alpha   90.00000000
_cell_angle_beta   90.00000000
_cell_angle_gamma   90.00000000
_symmetry_Int_Tables_number   1
_chemical_formula_structural   HC8
_chemical_formula_sum   'H24 C192'
_cell_volume   10586.05015959
_cell_formula_units_Z   24
loop_
 _symmetry_equiv_pos_site_id
 _symmetry_equiv_pos_as_xyz
  1  'x, y, z'
loop_
 _atom_site_type_symbol
 _atom_site_label
 _atom_site_symmetry_multiplicity
 _atom_site_fract_x
 _atom_site_fract_y
 _atom_site_fract_z
 _atom_site_occupancy
  C  C0  1  0.50000000  0.29062287  0.30659841  1
  C  C1  1  0.50000000  0.28977301  0.63856262  1
  C  C2  1  0.50000000  0.29025383  0.97215121  1
  C  C3  1  0.50000000  0.34985924  0.30565351  1
  C  C4  1  0.50000000  0.35004745  0.63920122  1
  C  C5  1  0.50000000  0.35010654  0.97207994  1
  C  C6  1  0.50000000  0.40999306  0.30549313  1
  C  C7  1  0.50000000  0.41006270  0.63898370  1
  C  C8  1  0.50000000  0.41005896  0.97202891  1
  C  C9  1  0.50000000  0.47004315  0.30561996  1
  C  C10  1  0.50000000  0.47003816  0.63896336  1
  C  C11  1  0.50000000  0.47004212  0.97223935  1
  C  C12  1  0.50000000  0.52995688  0.30561996  1
  C  C13  1  0.50000000  0.52996186  0.63896336  1
  C  C14  1  0.50000000  0.52995790  0.97223935  1
  C  C15  1  0.50000000  0.59000697  0.30549313  1
  C  C16  1  0.50000000  0.58993732  0.63898369  1
  C  C17  1  0.50000000  0.58994106  0.97202891  1
  C  C18  1  0.50000000  0.65014079  0.30565351  1
  C  C19  1  0.50000000  0.64995257  0.63920122  1
  C  C20  1  0.50000000  0.64989348  0.97207994  1
  C  C21  1  0.50000000  0.70937716  0.30659841  1
  C  C22  1  0.50000000  0.71022701  0.63856262  1
  C  C23  1  0.50000000  0.70974619  0.97215121  1
  C  C24  1  0.50000000  0.29072529  0.02659336  1
  C  C25  1  0.50000000  0.29060007  0.36008347  1
  C  C26  1  0.50000000  0.28979880  0.69432876  1
  C  C27  1  0.50000000  0.34999494  0.02745847  1
  C  C28  1  0.50000000  0.34982331  0.36127347  1
  C  C29  1  0.50000000  0.35001609  0.69444566  1
  C  C30  1  0.50000000  0.41003215  0.02769547  1
  C  C31  1  0.50000000  0.40995329  0.36132089  1
  C  C32  1  0.50000000  0.41003294  0.69452240  1
  C  C33  1  0.50000000  0.47004281  0.02770969  1
  C  C34  1  0.50000000  0.47002770  0.36109222  1
  C  C35  1  0.50000000  0.47002666  0.69442730  1
  C  C36  1  0.50000000  0.52995721  0.02770969  1
  C  C37  1  0.50000000  0.52997232  0.36109222  1
  C  C38  1  0.50000000  0.52997336  0.69442730  1
  C  C39  1  0.50000000  0.58996787  0.02769547  1
  C  C40  1  0.50000000  0.59004673  0.36132089  1
  C  C41  1  0.50000000  0.58996708  0.69452240  1
  C  C42  1  0.50000000  0.65000508  0.02745846  1
  C  C43  1  0.50000000  0.65017671  0.36127347  1
  C  C44  1  0.50000000  0.64998393  0.69444567  1
  C  C45  1  0.50000000  0.70927473  0.02659335  1
  C  C46  1  0.50000000  0.70939995  0.36008347  1
  C  C47  1  0.50000000  0.71020122  0.69432876  1
  C  C48  1  0.50000000  0.26042307  0.72336531  1
  C  C49  1  0.50000000  0.31972243  0.05489622  1
  C  C50  1  0.50000000  0.31985696  0.38874848  1
  C  C51  1  0.50000000  0.31982903  0.72214094  1
  C  C52  1  0.50000000  0.38005694  0.05542502  1
  C  C53  1  0.50000000  0.38007607  0.38913577  1
  C  C54  1  0.50000000  0.38007666  0.72227244  1
  C  C55  1  0.50000000  0.43996932  0.05554736  1
  C  C56  1  0.50000000  0.43995901  0.38900251  1
  C  C57  1  0.50000000  0.44001643  0.72230827  1
  C  C58  1  0.50000000  0.50000001  0.05548234  1
  C  C59  1  0.50000000  0.50000001  0.38884199  1
  C  C60  1  0.50000000  0.50000001  0.72221459  1
  C  C61  1  0.50000000  0.56003070  0.05554736  1
  C  C62  1  0.50000000  0.56004102  0.38900251  1
  C  C63  1  0.50000000  0.55998359  0.72230827  1
  C  C64  1  0.50000000  0.61994308  0.05542501  1
  C  C65  1  0.50000000  0.61992395  0.38913577  1
  C  C66  1  0.50000000  0.61992336  0.72227244  1
  C  C67  1  0.50000000  0.68027759  0.05489622  1
  C  C68  1  0.50000000  0.68014306  0.38874849  1
  C  C69  1  0.50000000  0.68017099  0.72214094  1
  C  C70  1  0.50000000  0.73957694  0.72336531  1
  C  C71  1  0.50000000  0.26043680  0.77665733  1
  C  C72  1  0.50000000  0.31985159  0.11124931  1
  C  C73  1  0.50000000  0.31973455  0.44510065  1
  C  C74  1  0.50000000  0.31984167  0.77784819  1
  C  C75  1  0.50000000  0.38007432  0.11087101  1
  C  C76  1  0.50000000  0.38006084  0.44458258  1
  C  C77  1  0.50000000  0.38008281  0.77772831  1
  C  C78  1  0.50000000  0.43995818  0.11100723  1
  C  C79  1  0.50000000  0.43997061  0.44446192  1
  C  C80  1  0.50000000  0.44001827  0.77770046  1
  C  C81  1  0.50000000  0.50000001  0.11116680  1
  C  C82  1  0.50000000  0.50000001  0.44452612  1
  C  C83  1  0.50000000  0.50000001  0.77779446  1
  C  C84  1  0.50000000  0.56004184  0.11100723  1
  C  C85  1  0.50000000  0.56002942  0.44446191  1
  C  C86  1  0.50000000  0.55998175  0.77770046  1
  C  C87  1  0.50000000  0.61992570  0.11087101  1
  C  C88  1  0.50000000  0.61993918  0.44458258  1
  C  C89  1  0.50000000  0.61991721  0.77772831  1
  C  C90  1  0.50000000  0.68014843  0.11124930  1
  C  C91  1  0.50000000  0.68026548  0.44510065  1
  C  C92  1  0.50000000  0.68015834  0.77784819  1
  C  C93  1  0.50000000  0.73956322  0.77665733  1
  C  C94  1  0.50000000  0.29059681  0.13991596  1
  C  C95  1  0.50000000  0.29073755  0.47339465  1
  C  C96  1  0.50000000  0.28982086  0.80566564  1
  C  C97  1  0.50000000  0.34981971  0.13872585  1
  C  C98  1  0.50000000  0.35000107  0.47254828  1
  C  C99  1  0.50000000  0.35002687  0.80555370  1
  C  C100  1  0.50000000  0.40995213  0.13868833  1
  C  C101  1  0.50000000  0.41003451  0.47231519  1
  C  C102  1  0.50000000  0.41003703  0.80548592  1
  C  C103  1  0.50000000  0.47002750  0.13891744  1
  C  C104  1  0.50000000  0.47004335  0.47229965  1
  C  C105  1  0.50000000  0.47002777  0.80558263  1
  C  C106  1  0.50000000  0.52997252  0.13891744  1
  C  C107  1  0.50000000  0.52995667  0.47229965  1
  C  C108  1  0.50000000  0.52997225  0.80558263  1
  C  C109  1  0.50000000  0.59004790  0.13868833  1
  C  C110  1  0.50000000  0.58996551  0.47231519  1
  C  C111  1  0.50000000  0.58996298  0.80548592  1
  C  C112  1  0.50000000  0.65018031  0.13872585  1
  C  C113  1  0.50000000  0.64999895  0.47254828  1
  C  C114  1  0.50000000  0.64997315  0.80555370  1
  C  C115  1  0.50000000  0.70940321  0.13991596  1
  C  C116  1  0.50000000  0.70926248  0.47339465  1
  C  C117  1  0.50000000  0.71017915  0.80566564  1
  C  C118  1  0.50000000  0.29062176  0.19340483  1
  C  C119  1  0.50000000  0.29026375  0.52783338  1
  C  C120  1  0.50000000  0.28979917  0.86142702  1
  C  C121  1  0.50000000  0.34985868  0.19434576  1
  C  C122  1  0.50000000  0.35010996  0.52792795  1
  C  C123  1  0.50000000  0.35006136  0.86079957  1
  C  C124  1  0.50000000  0.40999277  0.19451510  1
  C  C125  1  0.50000000  0.41005962  0.52798155  1
  C  C126  1  0.50000000  0.41006813  0.86102461  1
  C  C127  1  0.50000000  0.47004300  0.19438964  1
  C  C128  1  0.50000000  0.47004244  0.52776965  1
  C  C129  1  0.50000000  0.47003952  0.86104591  1
  C  C130  1  0.50000000  0.52995702  0.19438964  1
  C  C131  1  0.50000000  0.52995758  0.52776965  1
  C  C132  1  0.50000000  0.52996050  0.86104591  1
  C  C133  1  0.50000000  0.59000725  0.19451510  1
  C  C134  1  0.50000000  0.58994040  0.52798155  1
  C  C135  1  0.50000000  0.58993189  0.86102461  1
  C  C136  1  0.50000000  0.65014134  0.19434576  1
  C  C137  1  0.50000000  0.64989006  0.52792795  1
  C  C138  1  0.50000000  0.64993866  0.86079957  1
  C  C139  1  0.50000000  0.70937826  0.19340483  1
  C  C140  1  0.50000000  0.70973627  0.52783338  1
  C  C141  1  0.50000000  0.71020085  0.86142702  1
  C  C142  1  0.50000000  0.26044983  0.55606514  1
  C  C143  1  0.50000000  0.26029667  0.89067159  1
  C  C144  1  0.50000000  0.31991948  0.22195809  1
  C  C145  1  0.50000000  0.32023552  0.55586548  1
  C  C146  1  0.50000000  0.31995119  0.88865178  1
  C  C147  1  0.50000000  0.38004358  0.22229855  1
  C  C148  1  0.50000000  0.38019515  0.55582276  1
  C  C149  1  0.50000000  0.38009482  0.88874417  1
  C  C150  1  0.50000000  0.43992869  0.22224800  1
  C  C151  1  0.50000000  0.44003316  0.55569620  1
  C  C152  1  0.50000000  0.44001278  0.88888751  1
  C  C153  1  0.50000000  0.50000001  0.22212727  1
  C  C154  1  0.50000000  0.50000001  0.55554886  1
  C  C155  1  0.50000000  0.50000001  0.88883589  1
  C  C156  1  0.50000000  0.56007133  0.22224800  1
  C  C157  1  0.50000000  0.55996686  0.55569620  1
  C  C158  1  0.50000000  0.55998724  0.88888752  1
  C  C159  1  0.50000000  0.61995645  0.22229855  1
  C  C160  1  0.50000000  0.61980487  0.55582276  1
  C  C161  1  0.50000000  0.61990520  0.88874417  1
  C  C162  1  0.50000000  0.68008054  0.22195809  1
  C  C163  1  0.50000000  0.67976451  0.55586548  1
  C  C164  1  0.50000000  0.68004883  0.88865178  1
  C  C165  1  0.50000000  0.73955019  0.55606514  1
  C  C166  1  0.50000000  0.73970335  0.89067159  1
  C  C167  1  0.50000000  0.26027725  0.60929066  1
  C  C168  1  0.50000000  0.26044425  0.94389446  1
  C  C169  1  0.50000000  0.31991923  0.27804084  1
  C  C170  1  0.50000000  0.31993409  0.61134990  1
  C  C171  1  0.50000000  0.32023453  0.94413561  1
  C  C172  1  0.50000000  0.38004464  0.27770531  1
  C  C173  1  0.50000000  0.38008674  0.61126654  1
  C  C174  1  0.50000000  0.38019454  0.94418890  1
  C  C175  1  0.50000000  0.43992897  0.27776156  1
  C  C176  1  0.50000000  0.44000992  0.61112280  1
  C  C177  1  0.50000000  0.44003319  0.94431360  1
  C  C178  1  0.50000000  0.50000001  0.27788305  1
  C  C179  1  0.50000000  0.50000001  0.61117421  1
  C  C180  1  0.50000000  0.50000001  0.94446082  1
  C  C181  1  0.50000000  0.56007105  0.27776156  1
  C  C182  1  0.50000000  0.55999010  0.61112280  1
  C  C183  1  0.50000000  0.55996683  0.94431360  1
  C  C184  1  0.50000000  0.61995538  0.27770531  1
  C  C185  1  0.50000000  0.61991328  0.61126654  1
  C  C186  1  0.50000000  0.61980548  0.94418890  1
  C  C187  1  0.50000000  0.68008080  0.27804084  1
  C  C188  1  0.50000000  0.68006594  0.61134990  1
  C  C189  1  0.50000000  0.67976549  0.94413561  1
  C  C190  1  0.50000000  0.73972277  0.60929066  1
  C  C191  1  0.50000000  0.73955577  0.94389446  1
  H  H192  1  0.50000000  0.23694751  0.70351654  1
  H  H193  1  0.50000000  0.76305250  0.70351654  1
  H  H194  1  0.50000000  0.23697568  0.79654511  1
  H  H195  1  0.50000000  0.76302434  0.79654511  1
  H  H196  1  0.50000000  0.23744226  0.53454772  1
  H  H197  1  0.50000000  0.23686246  0.87064820  1
  H  H198  1  0.50000000  0.76255776  0.53454772  1
  H  H199  1  0.50000000  0.76313756  0.87064820  1
  H  H200  1  0.50000000  0.23683034  0.62928012  1
  H  H201  1  0.50000000  0.23741454  0.96535251  1
  H  H202  1  0.50000000  0.76316968  0.62928012  1
  H  H203  1  0.50000000  0.76258548  0.96535251  1
  H  H204  1  0.50000000  0.26725117  0.28651163  1
  H  H205  1  0.50000000  0.73274886  0.28651162  1
  H  H206  1  0.50000000  0.26724913  0.04645782  1
  H  H207  1  0.50000000  0.26716097  0.38001905  1
  H  H208  1  0.50000000  0.73275089  0.04645782  1
  H  H209  1  0.50000000  0.73283905  0.38001905  1
  H  H210  1  0.50000000  0.26717219  0.11993916  1
  H  H211  1  0.50000000  0.26726967  0.45350767  1
  H  H212  1  0.50000000  0.73282783  0.11993916  1
  H  H213  1  0.50000000  0.73273036  0.45350767  1
  H  H214  1  0.50000000  0.26726342  0.21353173  1
  H  H215  1  0.50000000  0.73273660  0.21353172  1
