# generated using pymatgen
data_H19C96
_symmetry_space_group_name_H-M   'P 1'
_cell_length_a   10.00000000
_cell_length_b   41.10890000
_cell_length_c   25.86675936
_cell_angle_alpha   90.00000000
_cell_angle_beta   90.00000000
_cell_angle_gamma   90.00000000
_symmetry_Int_Tables_number   1
_chemical_formula_structural   H19C96
_chemical_formula_sum   'H38 C192'
_cell_volume   10633.54023988
_cell_formula_units_Z   2
loop_
 _symmetry_equiv_pos_site_id
 _symmetry_equiv_pos_as_xyz
  1  'x, y, z'
loop_
 _atom_site_type_symbol
 _atom_site_label
 _atom_site_symmetry_multiplicity
 _atom_site_fract_x
 _atom_site_fract_y
 _atom_site_fract_z
 _atom_site_occupancy
  C  C0  1  0.50000000  0.28812400  0.30527002  1
  C  C1  1  0.50000000  0.28780677  0.63859266  1
  C  C2  1  0.50000000  0.28794725  0.97216331  1
  C  C3  1  0.50000000  0.34823297  0.30562275  1
  C  C4  1  0.50000000  0.34787064  0.63893707  1
  C  C5  1  0.50000000  0.34800255  0.97241398  1
  C  C6  1  0.50000000  0.40810612  0.30561044  1
  C  C7  1  0.50000000  0.40769015  0.63891320  1
  C  C8  1  0.50000000  0.40781965  0.97230987  1
  C  C9  1  0.50000000  0.46816936  0.30544272  1
  C  C10  1  0.50000000  0.46763019  0.63882197  1
  C  C11  1  0.50000000  0.46778186  0.97206470  1
  C  C12  1  0.50000000  0.52824694  0.30570363  1
  C  C13  1  0.50000000  0.52762376  0.63908726  1
  C  C14  1  0.50000000  0.52773338  0.97188358  1
  C  C15  1  0.50000000  0.58736948  0.30702993  1
  C  C16  1  0.50000000  0.58752059  0.63976399  1
  C  C17  1  0.50000000  0.58750573  0.97141303  1
  C  C18  1  0.50000000  0.64785475  0.63926446  1
  C  C19  1  0.50000000  0.64766558  0.96791757  1
  C  C20  1  0.50000000  0.72985912  0.30509710  1
  C  C21  1  0.50000000  0.70786407  0.63987434  1
  C  C22  1  0.50000000  0.70956593  0.97129268  1
  C  C23  1  0.50000000  0.28799898  0.02817399  1
  C  C24  1  0.50000000  0.28809743  0.36126586  1
  C  C25  1  0.50000000  0.28777574  0.69463445  1
  C  C26  1  0.50000000  0.34808600  0.02776210  1
  C  C27  1  0.50000000  0.34818784  0.36095565  1
  C  C28  1  0.50000000  0.34784628  0.69432629  1
  C  C29  1  0.50000000  0.40791266  0.02775422  1
  C  C30  1  0.50000000  0.40806191  0.36105551  1
  C  C31  1  0.50000000  0.40765182  0.69436091  1
  C  C32  1  0.50000000  0.46787728  0.02778529  1
  C  C33  1  0.50000000  0.46811905  0.36123302  1
  C  C34  1  0.50000000  0.46758094  0.69451659  1
  C  C35  1  0.50000000  0.52775863  0.02727906  1
  C  C36  1  0.50000000  0.52819272  0.36132656  1
  C  C37  1  0.50000000  0.52755570  0.69455442  1
  C  C38  1  0.50000000  0.58675249  0.02549991  1
  C  C39  1  0.50000000  0.58729275  0.36045038  1
  C  C40  1  0.50000000  0.58749564  0.69480668  1
  C  C41  1  0.50000000  0.64756641  0.69466531  1
  C  C42  1  0.50000000  0.71504360  0.02787173  1
  C  C43  1  0.50000000  0.72675734  0.36157415  1
  C  C44  1  0.50000000  0.70761286  0.69552232  1
  C  C45  1  0.50000000  0.25874827  0.05685675  1
  C  C46  1  0.50000000  0.25879844  0.38984962  1
  C  C47  1  0.50000000  0.25853983  0.72340933  1
  C  C48  1  0.50000000  0.31796809  0.05568783  1
  C  C49  1  0.50000000  0.31802300  0.38883498  1
  C  C50  1  0.50000000  0.31770432  0.72223450  1
  C  C51  1  0.50000000  0.37802428  0.05549506  1
  C  C52  1  0.50000000  0.37809045  0.38876271  1
  C  C53  1  0.50000000  0.37774049  0.72211894  1
  C  C54  1  0.50000000  0.43800312  0.05561071  1
  C  C55  1  0.50000000  0.43811736  0.38896161  1
  C  C56  1  0.50000000  0.43770548  0.72224004  1
  C  C57  1  0.50000000  0.49782110  0.05547879  1
  C  C58  1  0.50000000  0.49795413  0.38907473  1
  C  C59  1  0.50000000  0.49751690  0.72230647  1
  C  C60  1  0.50000000  0.55792767  0.05442779  1
  C  C61  1  0.50000000  0.55808382  0.38918030  1
  C  C62  1  0.50000000  0.55740803  0.72226902  1
  C  C63  1  0.50000000  0.61770156  0.72220985  1
  C  C64  1  0.50000000  0.68998159  0.06474246  1
  C  C65  1  0.50000000  0.69546718  0.38287916  1
  C  C66  1  0.50000000  0.67757505  0.72246724  1
  C  C67  1  0.50000000  0.74684878  0.04955022  1
  C  C68  1  0.50000000  0.75251723  0.39728272  1
  C  C69  1  0.50000000  0.73691394  0.72349416  1
  C  C70  1  0.50000000  0.25881245  0.11015517  1
  C  C71  1  0.50000000  0.25874136  0.44313381  1
  C  C72  1  0.50000000  0.25856513  0.77674020  1
  C  C73  1  0.50000000  0.31805237  0.11116331  1
  C  C74  1  0.50000000  0.31794298  0.44431733  1
  C  C75  1  0.50000000  0.31770784  0.77779495  1
  C  C76  1  0.50000000  0.37812069  0.11124611  1
  C  C77  1  0.50000000  0.37799808  0.44449763  1
  C  C78  1  0.50000000  0.37773835  0.77789671  1
  C  C79  1  0.50000000  0.43814820  0.11103756  1
  C  C80  1  0.50000000  0.43797043  0.44437209  1
  C  C81  1  0.50000000  0.43770253  0.77770668  1
  C  C82  1  0.50000000  0.49797748  0.11090025  1
  C  C83  1  0.50000000  0.49779662  0.44451186  1
  C  C84  1  0.50000000  0.49750957  0.77764033  1
  C  C85  1  0.50000000  0.55813528  0.11083523  1
  C  C86  1  0.50000000  0.55790585  0.44557154  1
  C  C87  1  0.50000000  0.55740135  0.77766624  1
  C  C88  1  0.50000000  0.61769647  0.77776536  1
  C  C89  1  0.50000000  0.69560296  0.11709267  1
  C  C90  1  0.50000000  0.68990406  0.43526086  1
  C  C91  1  0.50000000  0.67755052  0.77751902  1
  C  C92  1  0.50000000  0.75264702  0.10263672  1
  C  C93  1  0.50000000  0.74676365  0.45037214  1
  C  C94  1  0.50000000  0.73687722  0.77661891  1
  C  C95  1  0.50000000  0.28812220  0.13870162  1
  C  C96  1  0.50000000  0.28797184  0.47186180  1
  C  C97  1  0.50000000  0.28780096  0.80544770  1
  C  C98  1  0.50000000  0.34821411  0.13903626  1
  C  C99  1  0.50000000  0.34805830  0.47224762  1
  C  C100  1  0.50000000  0.34784599  0.80569040  1
  C  C101  1  0.50000000  0.40808608  0.13893061  1
  C  C102  1  0.50000000  0.40788472  0.47224180  1
  C  C103  1  0.50000000  0.40766026  0.80562480  1
  C  C104  1  0.50000000  0.46814009  0.13873540  1
  C  C105  1  0.50000000  0.46785181  0.47218548  1
  C  C106  1  0.50000000  0.46757402  0.80543436  1
  C  C107  1  0.50000000  0.52823120  0.13865183  1
  C  C108  1  0.50000000  0.52774057  0.47270038  1
  C  C109  1  0.50000000  0.52754999  0.80538400  1
  C  C110  1  0.50000000  0.58732366  0.13967045  1
  C  C111  1  0.50000000  0.58674882  0.47445663  1
  C  C112  1  0.50000000  0.58748684  0.80513436  1
  C  C113  1  0.50000000  0.64754476  0.80530504  1
  C  C114  1  0.50000000  0.72690034  0.13834349  1
  C  C115  1  0.50000000  0.71499132  0.47208170  1
  C  C116  1  0.50000000  0.70756130  0.80449676  1
  C  C117  1  0.50000000  0.28814983  0.19468921  1
  C  C118  1  0.50000000  0.28790698  0.52787831  1
  C  C119  1  0.50000000  0.28780557  0.86148343  1
  C  C120  1  0.50000000  0.34825080  0.19435870  1
  C  C121  1  0.50000000  0.34797182  0.52760103  1
  C  C122  1  0.50000000  0.34787309  0.86106095  1
  C  C123  1  0.50000000  0.40810779  0.19438010  1
  C  C124  1  0.50000000  0.40779744  0.52768545  1
  C  C125  1  0.50000000  0.40769478  0.86106405  1
  C  C126  1  0.50000000  0.46815803  0.19454356  1
  C  C127  1  0.50000000  0.46776759  0.52790923  1
  C  C128  1  0.50000000  0.46762685  0.86113323  1
  C  C129  1  0.50000000  0.52824174  0.19427667  1
  C  C130  1  0.50000000  0.52773249  0.52808007  1
  C  C131  1  0.50000000  0.52761839  0.86085041  1
  C  C132  1  0.50000000  0.58735161  0.19309764  1
  C  C133  1  0.50000000  0.58751844  0.52854157  1
  C  C134  1  0.50000000  0.58751439  0.86016556  1
  C  C135  1  0.50000000  0.64767763  0.53212699  1
  C  C136  1  0.50000000  0.64783025  0.86069085  1
  C  C137  1  0.50000000  0.72997866  0.19481235  1
  C  C138  1  0.50000000  0.70958017  0.52868003  1
  C  C139  1  0.50000000  0.70783654  0.86011857  1
  C  C140  1  0.50000000  0.25887530  0.22330990  1
  C  C141  1  0.50000000  0.25864416  0.55653746  1
  C  C142  1  0.50000000  0.25857693  0.89024878  1
  C  C143  1  0.50000000  0.31809062  0.22223710  1
  C  C144  1  0.50000000  0.31782431  0.55547699  1
  C  C145  1  0.50000000  0.31776620  0.88903609  1
  C  C146  1  0.50000000  0.37818657  0.22211556  1
  C  C147  1  0.50000000  0.37785063  0.55541014  1
  C  C148  1  0.50000000  0.37779279  0.88883152  1
  C  C149  1  0.50000000  0.43821421  0.22227756  1
  C  C150  1  0.50000000  0.43782291  0.55561232  1
  C  C151  1  0.50000000  0.43774981  0.88895366  1
  C  C152  1  0.50000000  0.49811560  0.22226750  1
  C  C153  1  0.50000000  0.49761244  0.55580314  1
  C  C154  1  0.50000000  0.49755756  0.88882460  1
  C  C155  1  0.50000000  0.55817056  0.22196890  1
  C  C156  1  0.50000000  0.55756067  0.55618945  1
  C  C157  1  0.50000000  0.55749286  0.88817209  1
  C  C158  1  0.50000000  0.61807212  0.55751312  1
  C  C159  1  0.50000000  0.61763890  0.88737565  1
  C  C160  1  0.50000000  0.70093345  0.22342249  1
  C  C161  1  0.50000000  0.67865116  0.55584501  1
  C  C162  1  0.50000000  0.67812789  0.88832736  1
  C  C163  1  0.50000000  0.75930105  0.22294781  1
  C  C164  1  0.50000000  0.73767802  0.55927174  1
  C  C165  1  0.50000000  0.73718564  0.88735048  1
  C  C166  1  0.50000000  0.25885726  0.27659202  1
  C  C167  1  0.50000000  0.25857932  0.60984123  1
  C  C168  1  0.50000000  0.25866799  0.94355908  1
  C  C169  1  0.50000000  0.31807606  0.27772693  1
  C  C170  1  0.50000000  0.31775358  0.61100098  1
  C  C171  1  0.50000000  0.31785089  0.94454670  1
  C  C172  1  0.50000000  0.37818255  0.27788342  1
  C  C173  1  0.50000000  0.37778366  0.61116935  1
  C  C174  1  0.50000000  0.37787695  0.94459306  1
  C  C175  1  0.50000000  0.43821539  0.27772073  1
  C  C176  1  0.50000000  0.43774830  0.61102069  1
  C  C177  1  0.50000000  0.43783936  0.94437209  1
  C  C178  1  0.50000000  0.49811769  0.27771382  1
  C  C179  1  0.50000000  0.49756009  0.61111653  1
  C  C180  1  0.50000000  0.49761437  0.94413836  1
  C  C181  1  0.50000000  0.55820635  0.27815617  1
  C  C182  1  0.50000000  0.55749394  0.61174029  1
  C  C183  1  0.50000000  0.55756080  0.94373379  1
  C  C184  1  0.50000000  0.61765522  0.61258935  1
  C  C185  1  0.50000000  0.61806818  0.94247513  1
  C  C186  1  0.50000000  0.70087513  0.27632151  1
  C  C187  1  0.50000000  0.67815860  0.61165301  1
  C  C188  1  0.50000000  0.67862977  0.94415372  1
  C  C189  1  0.50000000  0.75924121  0.27712909  1
  C  C190  1  0.50000000  0.73720780  0.61264154  1
  C  C191  1  0.50000000  0.73765347  0.94069897  1
  H  H192  1  0.50000000  0.23534588  0.03685997  1
  H  H193  1  0.50000000  0.23539826  0.36985227  1
  H  H194  1  0.50000000  0.23509316  0.70354170  1
  H  H195  1  0.50000000  0.76846716  0.02501984  1
  H  H196  1  0.50000000  0.77777176  0.38381112  1
  H  H197  1  0.50000000  0.76029120  0.70352236  1
  H  H198  1  0.50000000  0.23546110  0.13030511  1
  H  H199  1  0.50000000  0.23527230  0.46291033  1
  H  H200  1  0.50000000  0.23516495  0.79671076  1
  H  H201  1  0.50000000  0.77789082  0.11621163  1
  H  H202  1  0.50000000  0.76836544  0.47493326  1
  H  H203  1  0.50000000  0.76019449  0.79677581  1
  H  H204  1  0.50000000  0.23548859  0.20326553  1
  H  H205  1  0.50000000  0.23522796  0.53660816  1
  H  H206  1  0.50000000  0.23513698  0.87037058  1
  H  H207  1  0.50000000  0.78272169  0.20266428  1
  H  H208  1  0.50000000  0.76153594  0.54100747  1
  H  H209  1  0.50000000  0.76051007  0.86718873  1
  H  H210  1  0.50000000  0.23542778  0.29650006  1
  H  H211  1  0.50000000  0.23513515  0.62971156  1
  H  H212  1  0.50000000  0.23531512  0.96367581  1
  H  H213  1  0.50000000  0.78259741  0.29763381  1
  H  H214  1  0.50000000  0.76050066  0.63292301  1
  H  H215  1  0.50000000  0.76150853  0.95897438  1
  H  H216  1  0.50000000  0.61077680  0.28704778  1
  H  H217  1  0.50000000  0.64587090  0.00921909  1
  H  H218  1  0.50000000  0.60971883  0.04652292  1
  H  H219  1  0.50000000  0.61071840  0.38037341  1
  H  H220  1  0.50000000  0.66456263  0.05478832  1
  H  H221  1  0.50000000  0.67384170  0.35869003  1
  H  H222  1  0.50000000  0.67402591  0.14138992  1
  H  H223  1  0.50000000  0.66451974  0.44542183  1
  H  H224  1  0.50000000  0.61080255  0.11987671  1
  H  H225  1  0.50000000  0.60965822  0.45325818  1
  H  H226  1  0.50000000  0.61077725  0.21308290  1
  H  H227  1  0.50000000  0.64584224  0.49086950  1
  H  H228  1  0.50000000  0.67729701  0.20449293  1
  H  H229  1  0.50000000  0.67718452  0.29504194  1
