# generated using pymatgen
data_H4C33
_symmetry_space_group_name_H-M   'P 1'
_cell_length_a   10.00000000
_cell_length_b   41.10890000
_cell_length_c   25.74590533
_cell_angle_alpha   90.00000000
_cell_angle_beta   90.00000000
_cell_angle_gamma   90.00000000
_symmetry_Int_Tables_number   1
_chemical_formula_structural   H4C33
_chemical_formula_sum   'H24 C198'
_cell_volume   10583.85847717
_cell_formula_units_Z   6
loop_
 _symmetry_equiv_pos_site_id
 _symmetry_equiv_pos_as_xyz
  1  'x, y, z'
loop_
 _atom_site_type_symbol
 _atom_site_label
 _atom_site_symmetry_multiplicity
 _atom_site_fract_x
 _atom_site_fract_y
 _atom_site_fract_z
 _atom_site_occupancy
  C  C0  1  0.50000000  0.28989181  0.30542941  1
  C  C1  1  0.50000000  0.28988810  0.63872587  1
  C  C2  1  0.50000000  0.28989815  0.97208893  1
  C  C3  1  0.50000000  0.35004476  0.30569763  1
  C  C4  1  0.50000000  0.35003087  0.63902767  1
  C  C5  1  0.50000000  0.35003559  0.97237885  1
  C  C6  1  0.50000000  0.41002992  0.30553289  1
  C  C7  1  0.50000000  0.40998324  0.63887511  1
  C  C8  1  0.50000000  0.40999408  0.97222670  1
  C  C9  1  0.50000000  0.47010403  0.30556318  1
  C  C10  1  0.50000000  0.47001769  0.63890310  1
  C  C11  1  0.50000000  0.47003533  0.97225057  1
  C  C12  1  0.50000000  0.53004439  0.30566027  1
  C  C13  1  0.50000000  0.52995354  0.63899062  1
  C  C14  1  0.50000000  0.52996741  0.97228475  1
  C  C15  1  0.50000000  0.59005141  0.30552231  1
  C  C16  1  0.50000000  0.58993156  0.63898043  1
  C  C17  1  0.50000000  0.58993804  0.97204204  1
  C  C18  1  0.50000000  0.65020816  0.30561070  1
  C  C19  1  0.50000000  0.65001015  0.63917965  1
  C  C20  1  0.50000000  0.64994736  0.97206656  1
  C  C21  1  0.50000000  0.70946443  0.30661846  1
  C  C22  1  0.50000000  0.71028238  0.63863317  1
  C  C23  1  0.50000000  0.70980094  0.97217470  1
  C  C24  1  0.50000000  0.28990113  0.02793054  1
  C  C25  1  0.50000000  0.28988918  0.36126580  1
  C  C26  1  0.50000000  0.28988977  0.69457360  1
  C  C27  1  0.50000000  0.35004188  0.02764631  1
  C  C28  1  0.50000000  0.35004362  0.36095923  1
  C  C29  1  0.50000000  0.35002895  0.69430482  1
  C  C30  1  0.50000000  0.41000836  0.02780656  1
  C  C31  1  0.50000000  0.41002301  0.36112138  1
  C  C32  1  0.50000000  0.40997895  0.69445108  1
  C  C33  1  0.50000000  0.47006147  0.02777591  1
  C  C34  1  0.50000000  0.47008967  0.36109341  1
  C  C35  1  0.50000000  0.47001132  0.69442780  1
  C  C36  1  0.50000000  0.52999449  0.02767393  1
  C  C37  1  0.50000000  0.53004052  0.36103953  1
  C  C38  1  0.50000000  0.52995682  0.69438395  1
  C  C39  1  0.50000000  0.58998441  0.02768247  1
  C  C40  1  0.50000000  0.59007515  0.36128678  1
  C  C41  1  0.50000000  0.58995491  0.69452045  1
  C  C42  1  0.50000000  0.65007080  0.02746105  1
  C  C43  1  0.50000000  0.65024548  0.36127273  1
  C  C44  1  0.50000000  0.65003821  0.69444306  1
  C  C45  1  0.50000000  0.70935738  0.02652652  1
  C  C46  1  0.50000000  0.70949030  0.36005476  1
  C  C47  1  0.50000000  0.71025413  0.69429545  1
  C  C48  1  0.50000000  0.26050287  0.05664708  1
  C  C49  1  0.50000000  0.26049937  0.39002092  1
  C  C50  1  0.50000000  0.26051738  0.72333070  1
  C  C51  1  0.50000000  0.31987752  0.05551160  1
  C  C52  1  0.50000000  0.31987772  0.38882902  1
  C  C53  1  0.50000000  0.31986770  0.72216855  1
  C  C54  1  0.50000000  0.38007612  0.05554393  1
  C  C55  1  0.50000000  0.38008775  0.38885208  1
  C  C56  1  0.50000000  0.38005152  0.72219809  1
  C  C57  1  0.50000000  0.44003230  0.05566996  1
  C  C58  1  0.50000000  0.44004907  0.38897524  1
  C  C59  1  0.50000000  0.43999419  0.72231470  1
  C  C60  1  0.50000000  0.50000886  0.05553296  1
  C  C61  1  0.50000000  0.50002545  0.38886104  1
  C  C62  1  0.50000000  0.49995629  0.72221508  1
  C  C63  1  0.50000000  0.56006486  0.05552453  1
  C  C64  1  0.50000000  0.56009124  0.38897831  1
  C  C65  1  0.50000000  0.55997560  0.72229163  1
  C  C66  1  0.50000000  0.62000169  0.05546135  1
  C  C67  1  0.50000000  0.62000664  0.38915413  1
  C  C68  1  0.50000000  0.61995306  0.72230280  1
  C  C69  1  0.50000000  0.68032365  0.05491436  1
  C  C70  1  0.50000000  0.68020249  0.38876775  1
  C  C71  1  0.50000000  0.68021270  0.72213686  1
  C  C72  1  0.50000000  0.73966311  0.72339583  1
  C  C73  1  0.50000000  0.26051042  0.10999796  1
  C  C74  1  0.50000000  0.26051532  0.44337069  1
  C  C75  1  0.50000000  0.26052892  0.77668222  1
  C  C76  1  0.50000000  0.31988588  0.11116762  1
  C  C77  1  0.50000000  0.31988627  0.44448491  1
  C  C78  1  0.50000000  0.31987604  0.77782702  1
  C  C79  1  0.50000000  0.38009227  0.11115065  1
  C  C80  1  0.50000000  0.38008077  0.44445871  1
  C  C81  1  0.50000000  0.38005603  0.77780462  1
  C  C82  1  0.50000000  0.44005138  0.11102779  1
  C  C83  1  0.50000000  0.44003464  0.44433306  1
  C  C84  1  0.50000000  0.43999649  0.77768837  1
  C  C85  1  0.50000000  0.50002641  0.11114292  1
  C  C86  1  0.50000000  0.50000948  0.44447089  1
  C  C87  1  0.50000000  0.49995647  0.77778884  1
  C  C88  1  0.50000000  0.56009235  0.11102636  1
  C  C89  1  0.50000000  0.56006341  0.44448027  1
  C  C90  1  0.50000000  0.55997296  0.77771167  1
  C  C91  1  0.50000000  0.62000935  0.11084561  1
  C  C92  1  0.50000000  0.61999537  0.44453678  1
  C  C93  1  0.50000000  0.61994275  0.77769064  1
  C  C94  1  0.50000000  0.68020753  0.11122176  1
  C  C95  1  0.50000000  0.68031217  0.44507390  1
  C  C96  1  0.50000000  0.68020505  0.77785168  1
  C  C97  1  0.50000000  0.73965717  0.77661735  1
  C  C98  1  0.50000000  0.28990457  0.13873884  1
  C  C99  1  0.50000000  0.28991740  0.47207346  1
  C  C100  1  0.50000000  0.28990486  0.80542838  1
  C  C101  1  0.50000000  0.35005032  0.13904304  1
  C  C102  1  0.50000000  0.35004894  0.47235599  1
  C  C103  1  0.50000000  0.35003574  0.80569746  1
  C  C104  1  0.50000000  0.41002686  0.13888247  1
  C  C105  1  0.50000000  0.41001233  0.47219735  1
  C  C106  1  0.50000000  0.40998282  0.80555273  1
  C  C107  1  0.50000000  0.47009129  0.13891095  1
  C  C108  1  0.50000000  0.47006314  0.47222838  1
  C  C109  1  0.50000000  0.47001275  0.80557666  1
  C  C110  1  0.50000000  0.53004122  0.13896515  1
  C  C111  1  0.50000000  0.52999383  0.47233076  1
  C  C112  1  0.50000000  0.52995549  0.80562073  1
  C  C113  1  0.50000000  0.59007671  0.13871647  1
  C  C114  1  0.50000000  0.58998169  0.47232328  1
  C  C115  1  0.50000000  0.58994817  0.80548242  1
  C  C116  1  0.50000000  0.65024914  0.13872061  1
  C  C117  1  0.50000000  0.65006283  0.47253204  1
  C  C118  1  0.50000000  0.65003075  0.80553786  1
  C  C119  1  0.50000000  0.70949310  0.13993979  1
  C  C120  1  0.50000000  0.70934453  0.47345041  1
  C  C121  1  0.50000000  0.71023790  0.80568455  1
  C  C122  1  0.50000000  0.28990699  0.19457765  1
  C  C123  1  0.50000000  0.28991451  0.52791642  1
  C  C124  1  0.50000000  0.28990336  0.86127859  1
  C  C125  1  0.50000000  0.35005151  0.19430942  1
  C  C126  1  0.50000000  0.35004260  0.52762795  1
  C  C127  1  0.50000000  0.35003764  0.86097904  1
  C  C128  1  0.50000000  0.41003386  0.19447237  1
  C  C129  1  0.50000000  0.40999802  0.52777862  1
  C  C130  1  0.50000000  0.40998712  0.86113018  1
  C  C131  1  0.50000000  0.47010577  0.19444174  1
  C  C132  1  0.50000000  0.47003687  0.52775405  1
  C  C133  1  0.50000000  0.47001918  0.86110172  1
  C  C134  1  0.50000000  0.53004494  0.19434467  1
  C  C135  1  0.50000000  0.52996754  0.52772024  1
  C  C136  1  0.50000000  0.52995207  0.86101399  1
  C  C137  1  0.50000000  0.59005160  0.19448009  1
  C  C138  1  0.50000000  0.58993669  0.52796389  1
  C  C139  1  0.50000000  0.58992890  0.86102418  1
  C  C140  1  0.50000000  0.65020887  0.19438295  1
  C  C141  1  0.50000000  0.64994406  0.52793473  1
  C  C142  1  0.50000000  0.64999132  0.86081676  1
  C  C143  1  0.50000000  0.70946465  0.19337709  1
  C  C144  1  0.50000000  0.70978752  0.52780379  1
  C  C145  1  0.50000000  0.71025835  0.86135934  1
  C  C146  1  0.50000000  0.26052042  0.22332677  1
  C  C147  1  0.50000000  0.26051831  0.55662104  1
  C  C148  1  0.50000000  0.26051545  0.89001411  1
  C  C149  1  0.50000000  0.31988269  0.22217541  1
  C  C150  1  0.50000000  0.31988467  0.55550561  1
  C  C151  1  0.50000000  0.31987889  0.88885354  1
  C  C152  1  0.50000000  0.38009542  0.22220369  1
  C  C153  1  0.50000000  0.38006859  0.55552406  1
  C  C154  1  0.50000000  0.38005935  0.88887472  1
  C  C155  1  0.50000000  0.44005789  0.22233222  1
  C  C156  1  0.50000000  0.44001225  0.55563971  1
  C  C157  1  0.50000000  0.44000128  0.88899589  1
  C  C158  1  0.50000000  0.50004274  0.22218857  1
  C  C159  1  0.50000000  0.49996776  0.55554390  1
  C  C160  1  0.50000000  0.49996476  0.88887028  1
  C  C161  1  0.50000000  0.56013228  0.22222047  1
  C  C162  1  0.50000000  0.55997526  0.55567824  1
  C  C163  1  0.50000000  0.55998859  0.88886834  1
  C  C164  1  0.50000000  0.62004262  0.22232311  1
  C  C165  1  0.50000000  0.61985198  0.55584295  1
  C  C166  1  0.50000000  0.61993763  0.88877337  1
  C  C167  1  0.50000000  0.68014317  0.22199068  1
  C  C168  1  0.50000000  0.67980299  0.55588510  1
  C  C169  1  0.50000000  0.68008672  0.88863401  1
  C  C170  1  0.50000000  0.73961621  0.55613002  1
  C  C171  1  0.50000000  0.73978434  0.89064040  1
  C  C172  1  0.50000000  0.26050884  0.27666909  1
  C  C173  1  0.50000000  0.26050441  0.60997644  1
  C  C174  1  0.50000000  0.26050591  0.94337058  1
  C  C175  1  0.50000000  0.31987442  0.27783796  1
  C  C176  1  0.50000000  0.31987081  0.61115898  1
  C  C177  1  0.50000000  0.31987576  0.94450737  1
  C  C178  1  0.50000000  0.38009091  0.27780279  1
  C  C179  1  0.50000000  0.38005490  0.61113172  1
  C  C180  1  0.50000000  0.38006397  0.94448235  1
  C  C181  1  0.50000000  0.44005563  0.27767391  1
  C  C182  1  0.50000000  0.43999903  0.61101024  1
  C  C183  1  0.50000000  0.44000995  0.94436636  1
  C  C184  1  0.50000000  0.50004199  0.27781685  1
  C  C185  1  0.50000000  0.49996476  0.61113515  1
  C  C186  1  0.50000000  0.49996706  0.94446142  1
  C  C187  1  0.50000000  0.56013197  0.27778398  1
  C  C188  1  0.50000000  0.55998994  0.61113647  1
  C  C189  1  0.50000000  0.55997521  0.94432747  1
  C  C190  1  0.50000000  0.62004164  0.27767340  1
  C  C191  1  0.50000000  0.61994425  0.61122758  1
  C  C192  1  0.50000000  0.61985656  0.94415896  1
  C  C193  1  0.50000000  0.68014396  0.27800431  1
  C  C194  1  0.50000000  0.68010871  0.61136737  1
  C  C195  1  0.50000000  0.67980128  0.94412472  1
  C  C196  1  0.50000000  0.73979739  0.60931936  1
  C  C197  1  0.50000000  0.73961865  0.94383368  1
  H  H198  1  0.50000000  0.23710506  0.03654331  1
  H  H199  1  0.50000000  0.23707708  0.37001082  1
  H  H200  1  0.50000000  0.23707632  0.70338651  1
  H  H201  1  0.50000000  0.76312792  0.70345364  1
  H  H202  1  0.50000000  0.23710493  0.13005246  1
  H  H203  1  0.50000000  0.23712885  0.46350037  1
  H  H204  1  0.50000000  0.23709934  0.79665234  1
  H  H205  1  0.50000000  0.76309351  0.79661006  1
  H  H206  1  0.50000000  0.23709105  0.20335318  1
  H  H207  1  0.50000000  0.23713020  0.53649807  1
  H  H208  1  0.50000000  0.23711125  0.86995796  1
  H  H209  1  0.50000000  0.76259452  0.53457271  1
  H  H210  1  0.50000000  0.76321243  0.87061911  1
  H  H211  1  0.50000000  0.23706794  0.29661634  1
  H  H212  1  0.50000000  0.23708363  0.62998928  1
  H  H213  1  0.50000000  0.23710621  0.96346719  1
  H  H214  1  0.50000000  0.76323758  0.62931149  1
  H  H215  1  0.50000000  0.76261522  0.96533802  1
  H  H216  1  0.50000000  0.73281323  0.28644805  1
  H  H217  1  0.50000000  0.73282125  0.04646377  1
  H  H218  1  0.50000000  0.73290150  0.38009925  1
  H  H219  1  0.50000000  0.73289419  0.11986783  1
  H  H220  1  0.50000000  0.73280232  0.45350729  1
  H  H221  1  0.50000000  0.73280351  0.21357434  1
