# generated using pymatgen
data_H2C11
_symmetry_space_group_name_H-M   'P 1'
_cell_length_a   10.00000000
_cell_length_b   41.10890000
_cell_length_c   25.75279350
_cell_angle_alpha   90.00000000
_cell_angle_beta   90.00000000
_cell_angle_gamma   90.00000000
_symmetry_Int_Tables_number   1
_chemical_formula_structural   H2C11
_chemical_formula_sum   'H36 C198'
_cell_volume   10586.69012867
_cell_formula_units_Z   18
loop_
 _symmetry_equiv_pos_site_id
 _symmetry_equiv_pos_as_xyz
  1  'x, y, z'
loop_
 _atom_site_type_symbol
 _atom_site_label
 _atom_site_symmetry_multiplicity
 _atom_site_fract_x
 _atom_site_fract_y
 _atom_site_fract_z
 _atom_site_occupancy
  C  C0  1  0.50000000  0.28556326  0.30565165  1
  C  C1  1  0.50000000  0.28721668  0.63914337  1
  C  C2  1  0.50000000  0.28660371  0.97113887  1
  C  C3  1  0.50000000  0.34564662  0.30585630  1
  C  C4  1  0.50000000  0.34744143  0.63928789  1
  C  C5  1  0.50000000  0.34684626  0.97182456  1
  C  C6  1  0.50000000  0.40548347  0.30572793  1
  C  C7  1  0.50000000  0.40755957  0.63911739  1
  C  C8  1  0.50000000  0.40687818  0.97175517  1
  C  C9  1  0.50000000  0.46532013  0.30562583  1
  C  C10  1  0.50000000  0.46801390  0.63904275  1
  C  C11  1  0.50000000  0.46723823  0.97161283  1
  C  C12  1  0.50000000  0.52494906  0.30571043  1
  C  C13  1  0.50000000  0.52861009  0.63886646  1
  C  C14  1  0.50000000  0.52772018  0.97191996  1
  C  C15  1  0.50000000  0.58368557  0.30630740  1
  C  C16  1  0.50000000  0.58949924  0.63735448  1
  C  C17  1  0.50000000  0.58875281  0.97365913  1
  C  C18  1  0.50000000  0.66846204  0.30457638  1
  C  C19  1  0.50000000  0.64996256  0.63774116  1
  C  C20  1  0.50000000  0.65323269  0.97552412  1
  C  C21  1  0.50000000  0.72764321  0.30730866  1
  C  C22  1  0.50000000  0.71022385  0.64029212  1
  C  C23  1  0.50000000  0.71436975  0.96878917  1
  C  C24  1  0.50000000  0.28619760  0.02717308  1
  C  C25  1  0.50000000  0.28570780  0.36187025  1
  C  C26  1  0.50000000  0.28741214  0.69496947  1
  C  C27  1  0.50000000  0.34638483  0.02719919  1
  C  C28  1  0.50000000  0.34584714  0.36133362  1
  C  C29  1  0.50000000  0.34766460  0.69452838  1
  C  C30  1  0.50000000  0.40629891  0.02728437  1
  C  C31  1  0.50000000  0.40572302  0.36138161  1
  C  C32  1  0.50000000  0.40781928  0.69458118  1
  C  C33  1  0.50000000  0.46631626  0.02727775  1
  C  C34  1  0.50000000  0.46558664  0.36154580  1
  C  C35  1  0.50000000  0.46829069  0.69464087  1
  C  C36  1  0.50000000  0.52608436  0.02721656  1
  C  C37  1  0.50000000  0.52517735  0.36122623  1
  C  C38  1  0.50000000  0.52879262  0.69438847  1
  C  C39  1  0.50000000  0.58493162  0.02791070  1
  C  C40  1  0.50000000  0.58364522  0.35960024  1
  C  C41  1  0.50000000  0.58929459  0.69353318  1
  C  C42  1  0.50000000  0.65955067  0.02962063  1
  C  C43  1  0.50000000  0.66663985  0.35732405  1
  C  C44  1  0.50000000  0.64932922  0.69334671  1
  C  C45  1  0.50000000  0.71885565  0.02399002  1
  C  C46  1  0.50000000  0.72548100  0.36405655  1
  C  C47  1  0.50000000  0.70937266  0.69550025  1
  C  C48  1  0.50000000  0.25672618  0.05559491  1
  C  C49  1  0.50000000  0.25650115  0.39091729  1
  C  C50  1  0.50000000  0.25801169  0.72333492  1
  C  C51  1  0.50000000  0.31606807  0.05492655  1
  C  C52  1  0.50000000  0.31576348  0.38937380  1
  C  C53  1  0.50000000  0.31746111  0.72227022  1
  C  C54  1  0.50000000  0.37626211  0.05504837  1
  C  C55  1  0.50000000  0.37590322  0.38912767  1
  C  C56  1  0.50000000  0.37776648  0.72217601  1
  C  C57  1  0.50000000  0.43621811  0.05514599  1
  C  C58  1  0.50000000  0.43578656  0.38938212  1
  C  C59  1  0.50000000  0.43809391  0.72230275  1
  C  C60  1  0.50000000  0.49597169  0.05506068  1
  C  C61  1  0.50000000  0.49536238  0.38936179  1
  C  C62  1  0.50000000  0.49853323  0.72222005  1
  C  C63  1  0.50000000  0.55569493  0.05501589  1
  C  C64  1  0.50000000  0.55495648  0.38864115  1
  C  C65  1  0.50000000  0.55914989  0.72198671  1
  C  C66  1  0.50000000  0.61924584  0.72207340  1
  C  C67  1  0.50000000  0.69051784  0.05463366  1
  C  C68  1  0.50000000  0.69439712  0.38907346  1
  C  C69  1  0.50000000  0.67918999  0.72219030  1
  C  C70  1  0.50000000  0.74984568  0.04928108  1
  C  C71  1  0.50000000  0.75313139  0.39745971  1
  C  C72  1  0.50000000  0.73895176  0.72359990  1
  C  C73  1  0.50000000  0.25650394  0.10905883  1
  C  C74  1  0.50000000  0.25672975  0.44438167  1
  C  C75  1  0.50000000  0.25800552  0.77661492  1
  C  C76  1  0.50000000  0.31577260  0.11059024  1
  C  C77  1  0.50000000  0.31606508  0.44505204  1
  C  C78  1  0.50000000  0.31745768  0.77769016  1
  C  C79  1  0.50000000  0.37590868  0.11083643  1
  C  C80  1  0.50000000  0.37625286  0.44492498  1
  C  C81  1  0.50000000  0.37776040  0.77778914  1
  C  C82  1  0.50000000  0.43579410  0.11061093  1
  C  C83  1  0.50000000  0.43622900  0.44483948  1
  C  C84  1  0.50000000  0.43808654  0.77767558  1
  C  C85  1  0.50000000  0.49538277  0.11060502  1
  C  C86  1  0.50000000  0.49599798  0.44493881  1
  C  C87  1  0.50000000  0.49852571  0.77778579  1
  C  C88  1  0.50000000  0.55496191  0.11138590  1
  C  C89  1  0.50000000  0.55570645  0.44501164  1
  C  C90  1  0.50000000  0.55914381  0.77800655  1
  C  C91  1  0.50000000  0.61924266  0.77792029  1
  C  C92  1  0.50000000  0.69437066  0.11097063  1
  C  C93  1  0.50000000  0.69054572  0.44540082  1
  C  C94  1  0.50000000  0.67919536  0.77782959  1
  C  C95  1  0.50000000  0.75309449  0.10256319  1
  C  C96  1  0.50000000  0.74988524  0.45074769  1
  C  C97  1  0.50000000  0.73897534  0.77635639  1
  C  C98  1  0.50000000  0.28570265  0.13810102  1
  C  C99  1  0.50000000  0.28620900  0.47280910  1
  C  C100  1  0.50000000  0.28740771  0.80497984  1
  C  C101  1  0.50000000  0.34585758  0.13863256  1
  C  C102  1  0.50000000  0.34637945  0.47278197  1
  C  C103  1  0.50000000  0.34765792  0.80543881  1
  C  C104  1  0.50000000  0.40572888  0.13860283  1
  C  C105  1  0.50000000  0.40629464  0.47267950  1
  C  C106  1  0.50000000  0.40780824  0.80538709  1
  C  C107  1  0.50000000  0.46560633  0.13842008  1
  C  C108  1  0.50000000  0.46633813  0.47271291  1
  C  C109  1  0.50000000  0.46828126  0.80536068  1
  C  C110  1  0.50000000  0.52518454  0.13878603  1
  C  C111  1  0.50000000  0.52611127  0.47284120  1
  C  C112  1  0.50000000  0.52879272  0.80562594  1
  C  C113  1  0.50000000  0.58365235  0.14042763  1
  C  C114  1  0.50000000  0.58495237  0.47209999  1
  C  C115  1  0.50000000  0.58928580  0.80646525  1
  C  C116  1  0.50000000  0.66663315  0.14277275  1
  C  C117  1  0.50000000  0.65957513  0.47039635  1
  C  C118  1  0.50000000  0.64932488  0.80665725  1
  C  C119  1  0.50000000  0.72545793  0.13599351  1
  C  C120  1  0.50000000  0.71888663  0.47603514  1
  C  C121  1  0.50000000  0.70939930  0.80448337  1
  C  C122  1  0.50000000  0.28555298  0.19431090  1
  C  C123  1  0.50000000  0.28661554  0.52882718  1
  C  C124  1  0.50000000  0.28721494  0.86081407  1
  C  C125  1  0.50000000  0.34564604  0.19411320  1
  C  C126  1  0.50000000  0.34685000  0.52814033  1
  C  C127  1  0.50000000  0.34743819  0.86069402  1
  C  C128  1  0.50000000  0.40549295  0.19423944  1
  C  C129  1  0.50000000  0.40689224  0.52822102  1
  C  C130  1  0.50000000  0.40755894  0.86086949  1
  C  C131  1  0.50000000  0.46533340  0.19434431  1
  C  C132  1  0.50000000  0.46724743  0.52837961  1
  C  C133  1  0.50000000  0.46801662  0.86096432  1
  C  C134  1  0.50000000  0.52495566  0.19429753  1
  C  C135  1  0.50000000  0.52773061  0.52812317  1
  C  C136  1  0.50000000  0.52861531  0.86113716  1
  C  C137  1  0.50000000  0.58368886  0.19371789  1
  C  C138  1  0.50000000  0.58876260  0.52635354  1
  C  C139  1  0.50000000  0.58949408  0.86264790  1
  C  C140  1  0.50000000  0.66846947  0.19550673  1
  C  C141  1  0.50000000  0.65324333  0.52447953  1
  C  C142  1  0.50000000  0.64996429  0.86225685  1
  C  C143  1  0.50000000  0.72763546  0.19275305  1
  C  C144  1  0.50000000  0.71438716  0.53122814  1
  C  C145  1  0.50000000  0.71024972  0.85969485  1
  C  C146  1  0.50000000  0.25625589  0.22322424  1
  C  C147  1  0.50000000  0.25737275  0.55768452  1
  C  C148  1  0.50000000  0.25766473  0.88891602  1
  C  C149  1  0.50000000  0.31547261  0.22210272  1
  C  C150  1  0.50000000  0.31676729  0.55607015  1
  C  C151  1  0.50000000  0.31711393  0.88838984  1
  C  C152  1  0.50000000  0.37558012  0.22200637  1
  C  C153  1  0.50000000  0.37699640  0.55587737  1
  C  C154  1  0.50000000  0.37740058  0.88843504  1
  C  C155  1  0.50000000  0.43548713  0.22220555  1
  C  C156  1  0.50000000  0.43723220  0.55601248  1
  C  C157  1  0.50000000  0.43770136  0.88859720  1
  C  C158  1  0.50000000  0.49498077  0.22226893  1
  C  C159  1  0.50000000  0.49758147  0.55597959  1
  C  C160  1  0.50000000  0.49813251  0.88860465  1
  C  C161  1  0.50000000  0.55459810  0.22204667  1
  C  C162  1  0.50000000  0.55850916  0.55521352  1
  C  C163  1  0.50000000  0.55889021  0.88928809  1
  C  C164  1  0.50000000  0.62071488  0.55201824  1
  C  C165  1  0.50000000  0.62001816  0.89196255  1
  C  C166  1  0.50000000  0.69844180  0.22207737  1
  C  C167  1  0.50000000  0.68273459  0.55550332  1
  C  C168  1  0.50000000  0.68086174  0.88890101  1
  C  C169  1  0.50000000  0.75693268  0.22303098  1
  C  C170  1  0.50000000  0.74270629  0.56231227  1
  C  C171  1  0.50000000  0.74079341  0.88504878  1
  C  C172  1  0.50000000  0.25626166  0.27674234  1
  C  C173  1  0.50000000  0.25767000  0.61103547  1
  C  C174  1  0.50000000  0.25736442  0.94227359  1
  C  C175  1  0.50000000  0.31547908  0.27787091  1
  C  C176  1  0.50000000  0.31712180  0.61159219  1
  C  C177  1  0.50000000  0.31676306  0.94390058  1
  C  C178  1  0.50000000  0.37557626  0.27795569  1
  C  C179  1  0.50000000  0.37740263  0.61154655  1
  C  C180  1  0.50000000  0.37698971  0.94409356  1
  C  C181  1  0.50000000  0.43548044  0.27775697  1
  C  C182  1  0.50000000  0.43769736  0.61139272  1
  C  C183  1  0.50000000  0.43722181  0.94397781  1
  C  C184  1  0.50000000  0.49497937  0.27772204  1
  C  C185  1  0.50000000  0.49812432  0.61140053  1
  C  C186  1  0.50000000  0.49757900  0.94403840  1
  C  C187  1  0.50000000  0.55459759  0.27797013  1
  C  C188  1  0.50000000  0.55889263  0.61074292  1
  C  C189  1  0.50000000  0.55849865  0.94483127  1
  C  C190  1  0.50000000  0.62002194  0.60802984  1
  C  C191  1  0.50000000  0.62070471  0.94797706  1
  C  C192  1  0.50000000  0.69844197  0.27801342  1
  C  C193  1  0.50000000  0.68084879  0.61108562  1
  C  C194  1  0.50000000  0.68272862  0.94449441  1
  C  C195  1  0.50000000  0.75693009  0.27700827  1
  C  C196  1  0.50000000  0.74077106  0.61496102  1
  C  C197  1  0.50000000  0.74269155  0.93771040  1
  H  H198  1  0.50000000  0.23335266  0.03540134  1
  H  H199  1  0.50000000  0.23297254  0.37120616  1
  H  H200  1  0.50000000  0.23462024  0.70326217  1
  H  H201  1  0.50000000  0.77220383  0.02628479  1
  H  H202  1  0.50000000  0.77762717  0.38081931  1
  H  H203  1  0.50000000  0.76238297  0.70384399  1
  H  H204  1  0.50000000  0.23301927  0.12887610  1
  H  H205  1  0.50000000  0.23334133  0.46455190  1
  H  H206  1  0.50000000  0.23461927  0.79670247  1
  H  H207  1  0.50000000  0.77761056  0.11910549  1
  H  H208  1  0.50000000  0.77224070  0.47375920  1
  H  H209  1  0.50000000  0.76243496  0.79605753  1
  H  H210  1  0.50000000  0.23279038  0.20332164  1
  H  H211  1  0.50000000  0.23388039  0.53782997  1
  H  H212  1  0.50000000  0.23442958  0.86832148  1
  H  H213  1  0.50000000  0.78054470  0.20334694  1
  H  H214  1  0.50000000  0.76668579  0.54418714  1
  H  H215  1  0.50000000  0.76342069  0.86304099  1
  H  H216  1  0.50000000  0.23281904  0.29673313  1
  H  H217  1  0.50000000  0.23442803  0.63162012  1
  H  H218  1  0.50000000  0.23388274  0.96215139  1
  H  H219  1  0.50000000  0.78053542  0.29670408  1
  H  H220  1  0.50000000  0.76339135  0.63697384  1
  H  H221  1  0.50000000  0.76663973  0.95593169  1
  H  H222  1  0.50000000  0.60674465  0.28601414  1
  H  H223  1  0.50000000  0.64604794  0.28265420  1
  H  H224  1  0.50000000  0.60623146  0.05164399  1
  H  H225  1  0.50000000  0.60657933  0.37997640  1
  H  H226  1  0.50000000  0.63981187  0.05692571  1
  H  H227  1  0.50000000  0.64296826  0.37530173  1
  H  H228  1  0.50000000  0.60656567  0.11999996  1
  H  H229  1  0.50000000  0.60624701  0.44834249  1
  H  H230  1  0.50000000  0.64292507  0.12492159  1
  H  H231  1  0.50000000  0.63984053  0.44309165  1
  H  H232  1  0.50000000  0.60672129  0.21408682  1
  H  H233  1  0.50000000  0.64603681  0.21738535  1
