# generated using pymatgen
data_H2C11
_symmetry_space_group_name_H-M   'P 1'
_cell_length_a   10.00000000
_cell_length_b   41.10890000
_cell_length_c   25.74639996
_cell_angle_alpha   90.00000000
_cell_angle_beta   90.00000000
_cell_angle_gamma   90.00000000
_symmetry_Int_Tables_number   1
_chemical_formula_structural   H2C11
_chemical_formula_sum   'H36 C198'
_cell_volume   10584.06181147
_cell_formula_units_Z   18
loop_
 _symmetry_equiv_pos_site_id
 _symmetry_equiv_pos_as_xyz
  1  'x, y, z'
loop_
 _atom_site_type_symbol
 _atom_site_label
 _atom_site_symmetry_multiplicity
 _atom_site_fract_x
 _atom_site_fract_y
 _atom_site_fract_z
 _atom_site_occupancy
  C  C0  1  0.50000000  0.28349947  0.30599432  1
  C  C1  1  0.50000000  0.28742795  0.63966068  1
  C  C2  1  0.50000000  0.28611960  0.97055521  1
  C  C3  1  0.50000000  0.34350820  0.30608240  1
  C  C4  1  0.50000000  0.34767509  0.63955132  1
  C  C5  1  0.50000000  0.34640458  0.97147618  1
  C  C6  1  0.50000000  0.40316117  0.30578564  1
  C  C7  1  0.50000000  0.40808870  0.63921571  1
  C  C8  1  0.50000000  0.40668270  0.97145534  1
  C  C9  1  0.50000000  0.46262976  0.30572962  1
  C  C10  1  0.50000000  0.46894332  0.63876825  1
  C  C11  1  0.50000000  0.46733315  0.97195131  1
  C  C12  1  0.50000000  0.52116374  0.30578289  1
  C  C13  1  0.50000000  0.52993351  0.63735970  1
  C  C14  1  0.50000000  0.52852059  0.97443727  1
  C  C15  1  0.50000000  0.60335045  0.30510283  1
  C  C16  1  0.50000000  0.59088346  0.63728639  1
  C  C17  1  0.50000000  0.59301356  0.97480394  1
  C  C18  1  0.50000000  0.66194001  0.30601846  1
  C  C19  1  0.50000000  0.65148519  0.63914112  1
  C  C20  1  0.50000000  0.65423384  0.97156319  1
  C  C21  1  0.50000000  0.72168251  0.30653520  1
  C  C22  1  0.50000000  0.71199962  0.64048905  1
  C  C23  1  0.50000000  0.71474354  0.96874279  1
  C  C24  1  0.50000000  0.28529681  0.02639453  1
  C  C25  1  0.50000000  0.28387910  0.36222497  1
  C  C26  1  0.50000000  0.28781275  0.69519140  1
  C  C27  1  0.50000000  0.34535897  0.02672700  1
  C  C28  1  0.50000000  0.34393881  0.36149815  1
  C  C29  1  0.50000000  0.34810184  0.69463709  1
  C  C30  1  0.50000000  0.40525445  0.02705110  1
  C  C31  1  0.50000000  0.40368344  0.36158318  1
  C  C32  1  0.50000000  0.40853216  0.69472481  1
  C  C33  1  0.50000000  0.46513642  0.02729464  1
  C  C34  1  0.50000000  0.46321337  0.36123067  1
  C  C35  1  0.50000000  0.46929645  0.69440701  1
  C  C36  1  0.50000000  0.52411166  0.02857240  1
  C  C37  1  0.50000000  0.52149529  0.35884033  1
  C  C38  1  0.50000000  0.52998283  0.69338866  1
  C  C39  1  0.50000000  0.59828245  0.02930249  1
  C  C40  1  0.50000000  0.60245959  0.35820201  1
  C  C41  1  0.50000000  0.59049476  0.69349345  1
  C  C42  1  0.50000000  0.65732928  0.02667625  1
  C  C43  1  0.50000000  0.66075977  0.36155911  1
  C  C44  1  0.50000000  0.65082534  0.69441389  1
  C  C45  1  0.50000000  0.71723275  0.02465286  1
  C  C46  1  0.50000000  0.72058752  0.36363593  1
  C  C47  1  0.50000000  0.71124042  0.69580088  1
  C  C48  1  0.50000000  0.25557846  0.05460454  1
  C  C49  1  0.50000000  0.25482147  0.39196948  1
  C  C50  1  0.50000000  0.25836038  0.72347248  1
  C  C51  1  0.50000000  0.31493582  0.05447387  1
  C  C52  1  0.50000000  0.31406810  0.38971157  1
  C  C53  1  0.50000000  0.31790851  0.72234062  1
  C  C54  1  0.50000000  0.37506487  0.05482436  1
  C  C55  1  0.50000000  0.37410690  0.38954321  1
  C  C56  1  0.50000000  0.37839742  0.72227860  1
  C  C57  1  0.50000000  0.43479536  0.05509354  1
  C  C58  1  0.50000000  0.43364510  0.38957574  1
  C  C59  1  0.50000000  0.43893272  0.72231728  1
  C  C60  1  0.50000000  0.49444873  0.05540252  1
  C  C61  1  0.50000000  0.49306228  0.38843294  1
  C  C62  1  0.50000000  0.49973031  0.72192192  1
  C  C63  1  0.50000000  0.56023607  0.72204998  1
  C  C64  1  0.50000000  0.62821026  0.05529941  1
  C  C65  1  0.50000000  0.63055949  0.38819170  1
  C  C66  1  0.50000000  0.62050108  0.72196049  1
  C  C67  1  0.50000000  0.68818487  0.05367567  1
  C  C68  1  0.50000000  0.69025536  0.39050643  1
  C  C69  1  0.50000000  0.68100772  0.72240293  1
  C  C70  1  0.50000000  0.74734064  0.05167833  1
  C  C71  1  0.50000000  0.74900367  0.39459862  1
  C  C72  1  0.50000000  0.74076269  0.72358462  1
  C  C73  1  0.50000000  0.25482994  0.10802700  1
  C  C74  1  0.50000000  0.25557162  0.44539390  1
  C  C75  1  0.50000000  0.25836548  0.77656727  1
  C  C76  1  0.50000000  0.31408299  0.11027878  1
  C  C77  1  0.50000000  0.31491693  0.44551927  1
  C  C78  1  0.50000000  0.31790529  0.77766149  1
  C  C79  1  0.50000000  0.37411611  0.11046537  1
  C  C80  1  0.50000000  0.37505745  0.44518642  1
  C  C81  1  0.50000000  0.37838928  0.77774023  1
  C  C82  1  0.50000000  0.43365359  0.11042069  1
  C  C83  1  0.50000000  0.43478986  0.44490717  1
  C  C84  1  0.50000000  0.43892966  0.77771558  1
  C  C85  1  0.50000000  0.49307262  0.11157886  1
  C  C86  1  0.50000000  0.49443898  0.44461142  1
  C  C87  1  0.50000000  0.49971095  0.77803464  1
  C  C88  1  0.50000000  0.56022517  0.77794071  1
  C  C89  1  0.50000000  0.63056986  0.11178278  1
  C  C90  1  0.50000000  0.62821619  0.44468245  1
  C  C91  1  0.50000000  0.62049250  0.77806577  1
  C  C92  1  0.50000000  0.69026014  0.10945128  1
  C  C93  1  0.50000000  0.68819337  0.44629486  1
  C  C94  1  0.50000000  0.68099921  0.77763661  1
  C  C95  1  0.50000000  0.74900998  0.10534651  1
  C  C96  1  0.50000000  0.74735010  0.44827462  1
  C  C97  1  0.50000000  0.74075580  0.77647382  1
  C  C98  1  0.50000000  0.28389288  0.13775995  1
  C  C99  1  0.50000000  0.28528101  0.47360919  1
  C  C100  1  0.50000000  0.28781880  0.80483310  1
  C  C101  1  0.50000000  0.34394809  0.13850345  1
  C  C102  1  0.50000000  0.34534303  0.47327135  1
  C  C103  1  0.50000000  0.34809404  0.80536689  1
  C  C104  1  0.50000000  0.40369195  0.13842660  1
  C  C105  1  0.50000000  0.40524768  0.47294851  1
  C  C106  1  0.50000000  0.40852813  0.80529545  1
  C  C107  1  0.50000000  0.46321589  0.13878091  1
  C  C108  1  0.50000000  0.46512656  0.47271609  1
  C  C109  1  0.50000000  0.46927412  0.80564889  1
  C  C110  1  0.50000000  0.52150617  0.14117322  1
  C  C111  1  0.50000000  0.52410541  0.47143456  1
  C  C112  1  0.50000000  0.52996926  0.80659407  1
  C  C113  1  0.50000000  0.60247226  0.14176326  1
  C  C114  1  0.50000000  0.59828942  0.47069837  1
  C  C115  1  0.50000000  0.59047820  0.80651486  1
  C  C116  1  0.50000000  0.66076839  0.13840281  1
  C  C117  1  0.50000000  0.65733600  0.47331362  1
  C  C118  1  0.50000000  0.65081317  0.80561294  1
  C  C119  1  0.50000000  0.72059411  0.13631242  1
  C  C120  1  0.50000000  0.71724648  0.47532017  1
  C  C121  1  0.50000000  0.71122960  0.80423889  1
  C  C122  1  0.50000000  0.28351388  0.19399142  1
  C  C123  1  0.50000000  0.28610369  0.52946041  1
  C  C124  1  0.50000000  0.28742967  0.86036685  1
  C  C125  1  0.50000000  0.34351570  0.19392415  1
  C  C126  1  0.50000000  0.34639642  0.52853210  1
  C  C127  1  0.50000000  0.34767246  0.86045491  1
  C  C128  1  0.50000000  0.40316554  0.19422362  1
  C  C129  1  0.50000000  0.40666733  0.52855334  1
  C  C130  1  0.50000000  0.40809199  0.86081253  1
  C  C131  1  0.50000000  0.46262790  0.19427969  1
  C  C132  1  0.50000000  0.46732691  0.52805928  1
  C  C133  1  0.50000000  0.46894209  0.86124588  1
  C  C134  1  0.50000000  0.52116290  0.19422773  1
  C  C135  1  0.50000000  0.52851325  0.52556679  1
  C  C136  1  0.50000000  0.52992606  0.86262317  1
  C  C137  1  0.50000000  0.60334910  0.19485516  1
  C  C138  1  0.50000000  0.59302547  0.52520905  1
  C  C139  1  0.50000000  0.59086656  0.86272848  1
  C  C140  1  0.50000000  0.66193871  0.19393415  1
  C  C141  1  0.50000000  0.65425031  0.52843367  1
  C  C142  1  0.50000000  0.65146769  0.86088371  1
  C  C143  1  0.50000000  0.72167834  0.19340347  1
  C  C144  1  0.50000000  0.71476750  0.53124125  1
  C  C145  1  0.50000000  0.71199217  0.85954355  1
  C  C146  1  0.50000000  0.25412597  0.22321220  1
  C  C147  1  0.50000000  0.25698373  0.55874563  1
  C  C148  1  0.50000000  0.25767772  0.88809007  1
  C  C149  1  0.50000000  0.31339084  0.22197608  1
  C  C150  1  0.50000000  0.31643009  0.55649812  1
  C  C151  1  0.50000000  0.31722307  0.88802467  1
  C  C152  1  0.50000000  0.37338780  0.22211699  1
  C  C153  1  0.50000000  0.37687328  0.55630846  1
  C  C154  1  0.50000000  0.37771125  0.88821670  1
  C  C155  1  0.50000000  0.43277695  0.22237108  1
  C  C156  1  0.50000000  0.43731516  0.55616744  1
  C  C157  1  0.50000000  0.43822859  0.88860439  1
  C  C158  1  0.50000000  0.49201118  0.22221246  1
  C  C159  1  0.50000000  0.49835452  0.55486060  1
  C  C160  1  0.50000000  0.49911967  0.88949161  1
  C  C161  1  0.50000000  0.56077819  0.55204143  1
  C  C162  1  0.50000000  0.56050404  0.89198729  1
  C  C163  1  0.50000000  0.63263878  0.22209653  1
  C  C164  1  0.50000000  0.62294192  0.55468626  1
  C  C165  1  0.50000000  0.62155591  0.88949048  1
  C  C166  1  0.50000000  0.69211775  0.22192220  1
  C  C167  1  0.50000000  0.68396918  0.55721820  1
  C  C168  1  0.50000000  0.68236715  0.88757089  1
  C  C169  1  0.50000000  0.75077660  0.22291782  1
  C  C170  1  0.50000000  0.74346818  0.56102717  1
  C  C171  1  0.50000000  0.74210445  0.88593052  1
  C  C172  1  0.50000000  0.25411522  0.27675177  1
  C  C173  1  0.50000000  0.25767399  0.61194229  1
  C  C174  1  0.50000000  0.25699728  0.94127957  1
  C  C175  1  0.50000000  0.31338332  0.27801666  1
  C  C176  1  0.50000000  0.31722172  0.61198958  1
  C  C177  1  0.50000000  0.31643776  0.94351480  1
  C  C178  1  0.50000000  0.37338339  0.27789078  1
  C  C179  1  0.50000000  0.37770835  0.61178970  1
  C  C180  1  0.50000000  0.37688115  0.94370182  1
  C  C181  1  0.50000000  0.43277686  0.27763794  1
  C  C182  1  0.50000000  0.43822073  0.61141324  1
  C  C183  1  0.50000000  0.43732227  0.94385910  1
  C  C184  1  0.50000000  0.49201088  0.27779342  1
  C  C185  1  0.50000000  0.49911546  0.61051324  1
  C  C186  1  0.50000000  0.49836455  0.94514499  1
  C  C187  1  0.50000000  0.56052150  0.60801229  1
  C  C188  1  0.50000000  0.56077455  0.94795691  1
  C  C189  1  0.50000000  0.63263929  0.27786130  1
  C  C190  1  0.50000000  0.62157000  0.61051556  1
  C  C191  1  0.50000000  0.62292633  0.94531852  1
  C  C192  1  0.50000000  0.69211867  0.27802368  1
  C  C193  1  0.50000000  0.68237586  0.61244564  1
  C  C194  1  0.50000000  0.68394929  0.94278154  1
  C  C195  1  0.50000000  0.75078243  0.27701326  1
  C  C196  1  0.50000000  0.74210876  0.61409657  1
  C  C197  1  0.50000000  0.74345360  0.93899867  1
  H  H198  1  0.50000000  0.23243247  0.03381548  1
  H  H199  1  0.50000000  0.23111758  0.37265646  1
  H  H200  1  0.50000000  0.23501798  0.70337102  1
  H  H201  1  0.50000000  0.77026382  0.03020060  1
  H  H202  1  0.50000000  0.77299301  0.37617509  1
  H  H203  1  0.50000000  0.76408966  0.70353491  1
  H  H204  1  0.50000000  0.23113083  0.12734478  1
  H  H205  1  0.50000000  0.23242204  0.46616827  1
  H  H206  1  0.50000000  0.23502903  0.79667785  1
  H  H207  1  0.50000000  0.77301479  0.12372015  1
  H  H208  1  0.50000000  0.77027762  0.46974589  1
  H  H209  1  0.50000000  0.76407792  0.79653724  1
  H  H210  1  0.50000000  0.23061128  0.20331953  1
  H  H211  1  0.50000000  0.23334411  0.53939215  1
  H  H212  1  0.50000000  0.23453527  0.86733935  1
  H  H213  1  0.50000000  0.77430368  0.20306355  1
  H  H214  1  0.50000000  0.76716887  0.54192279  1
  H  H215  1  0.50000000  0.76497940  0.86452678  1
  H  H216  1  0.50000000  0.23058695  0.29660659  1
  H  H217  1  0.50000000  0.23453603  0.63270852  1
  H  H218  1  0.50000000  0.23335985  0.96064279  1
  H  H219  1  0.50000000  0.77432138  0.29683531  1
  H  H220  1  0.50000000  0.76497825  0.63551157  1
  H  H221  1  0.50000000  0.76714129  0.95814006  1
  H  H222  1  0.50000000  0.54382602  0.28484379  1
  H  H223  1  0.50000000  0.58084965  0.28372324  1
  H  H224  1  0.50000000  0.54490499  0.05344100  1
  H  H225  1  0.50000000  0.54437811  0.37893107  1
  H  H226  1  0.50000000  0.57798493  0.05529735  1
  H  H227  1  0.50000000  0.57933592  0.37764225  1
  H  H228  1  0.50000000  0.54439468  0.12110145  1
  H  H229  1  0.50000000  0.54490436  0.44657326  1
  H  H230  1  0.50000000  0.57936215  0.12228658  1
  H  H231  1  0.50000000  0.57798059  0.44473515  1
  H  H232  1  0.50000000  0.54382658  0.21516438  1
  H  H233  1  0.50000000  0.58083469  0.21620301  1
