# generated using pymatgen
data_H19C99
_symmetry_space_group_name_H-M   'P 1'
_cell_length_a   10.00000000
_cell_length_b   41.10890000
_cell_length_c   25.87623626
_cell_angle_alpha   90.00000000
_cell_angle_beta   90.00000000
_cell_angle_gamma   90.00000000
_symmetry_Int_Tables_number   1
_chemical_formula_structural   H19C99
_chemical_formula_sum   'H38 C198'
_cell_volume   10637.43608770
_cell_formula_units_Z   2
loop_
 _symmetry_equiv_pos_site_id
 _symmetry_equiv_pos_as_xyz
  1  'x, y, z'
loop_
 _atom_site_type_symbol
 _atom_site_label
 _atom_site_symmetry_multiplicity
 _atom_site_fract_x
 _atom_site_fract_y
 _atom_site_fract_z
 _atom_site_occupancy
  C  C0  1  0.50000000  0.28528187  0.30560177  1
  C  C1  1  0.50000000  0.28675123  0.63912709  1
  C  C2  1  0.50000000  0.28627948  0.97132192  1
  C  C3  1  0.50000000  0.34528778  0.30583874  1
  C  C4  1  0.50000000  0.34697773  0.63925833  1
  C  C5  1  0.50000000  0.34645726  0.97198273  1
  C  C6  1  0.50000000  0.40498576  0.30576230  1
  C  C7  1  0.50000000  0.40706767  0.63915594  1
  C  C8  1  0.50000000  0.40646260  0.97186344  1
  C  C9  1  0.50000000  0.46468721  0.30580483  1
  C  C10  1  0.50000000  0.46749021  0.63889718  1
  C  C11  1  0.50000000  0.46675055  0.97175636  1
  C  C12  1  0.50000000  0.52409080  0.30584248  1
  C  C13  1  0.50000000  0.52799602  0.63873071  1
  C  C14  1  0.50000000  0.52719182  0.97235890  1
  C  C15  1  0.50000000  0.58359280  0.30425100  1
  C  C16  1  0.50000000  0.58831884  0.63888812  1
  C  C17  1  0.50000000  0.58810716  0.97326025  1
  C  C18  1  0.50000000  0.64889484  0.63899240  1
  C  C19  1  0.50000000  0.65075860  0.96640074  1
  C  C20  1  0.50000000  0.73988622  0.30600525  1
  C  C21  1  0.50000000  0.70946359  0.64124465  1
  C  C22  1  0.50000000  0.71291513  0.96965741  1
  C  C23  1  0.50000000  0.28597999  0.02724816  1
  C  C24  1  0.50000000  0.28545711  0.36168631  1
  C  C25  1  0.50000000  0.28693664  0.69495544  1
  C  C26  1  0.50000000  0.34606075  0.02721543  1
  C  C27  1  0.50000000  0.34545499  0.36119976  1
  C  C28  1  0.50000000  0.34716501  0.69448407  1
  C  C29  1  0.50000000  0.40591035  0.02734169  1
  C  C30  1  0.50000000  0.40518785  0.36134955  1
  C  C31  1  0.50000000  0.40723753  0.69457372  1
  C  C32  1  0.50000000  0.46589745  0.02735391  1
  C  C33  1  0.50000000  0.46492690  0.36139461  1
  C  C34  1  0.50000000  0.46757114  0.69458507  1
  C  C35  1  0.50000000  0.52573862  0.02761324  1
  C  C36  1  0.50000000  0.52435278  0.36100003  1
  C  C37  1  0.50000000  0.52797987  0.69439364  1
  C  C38  1  0.50000000  0.58554050  0.02906676  1
  C  C39  1  0.50000000  0.58345482  0.35920257  1
  C  C40  1  0.50000000  0.58817784  0.69441011  1
  C  C41  1  0.50000000  0.64833951  0.69448875  1
  C  C42  1  0.50000000  0.72057289  0.02616639  1
  C  C43  1  0.50000000  0.73589251  0.36288977  1
  C  C44  1  0.50000000  0.70871683  0.69635375  1
  C  C45  1  0.50000000  0.25657745  0.05581588  1
  C  C46  1  0.50000000  0.25631382  0.39080373  1
  C  C47  1  0.50000000  0.25760959  0.72347595  1
  C  C48  1  0.50000000  0.31580599  0.05503151  1
  C  C49  1  0.50000000  0.31546015  0.38928815  1
  C  C50  1  0.50000000  0.31697670  0.72233599  1
  C  C51  1  0.50000000  0.37586929  0.05514440  1
  C  C52  1  0.50000000  0.37543768  0.38917625  1
  C  C53  1  0.50000000  0.37722349  0.72218120  1
  C  C54  1  0.50000000  0.43576427  0.05524745  1
  C  C55  1  0.50000000  0.43520881  0.38939870  1
  C  C56  1  0.50000000  0.43751361  0.72229517  1
  C  C57  1  0.50000000  0.49549813  0.05527461  1
  C  C58  1  0.50000000  0.49479515  0.38923277  1
  C  C59  1  0.50000000  0.49776681  0.72221307  1
  C  C60  1  0.50000000  0.55521600  0.05596725  1
  C  C61  1  0.50000000  0.55440676  0.38842656  1
  C  C62  1  0.50000000  0.55803252  0.72216141  1
  C  C63  1  0.50000000  0.61287926  0.06158016  1
  C  C64  1  0.50000000  0.61278465  0.38612085  1
  C  C65  1  0.50000000  0.61837918  0.72206983  1
  C  C66  1  0.50000000  0.69705445  0.06524936  1
  C  C67  1  0.50000000  0.70414963  0.38259320  1
  C  C68  1  0.50000000  0.67840536  0.72252476  1
  C  C69  1  0.50000000  0.75299171  0.04613414  1
  C  C70  1  0.50000000  0.76034814  0.40107117  1
  C  C71  1  0.50000000  0.73816494  0.72367316  1
  C  C72  1  0.50000000  0.25634521  0.10910162  1
  C  C73  1  0.50000000  0.25653501  0.44410265  1
  C  C74  1  0.50000000  0.25762403  0.77665698  1
  C  C75  1  0.50000000  0.31548533  0.11065904  1
  C  C76  1  0.50000000  0.31575883  0.44489856  1
  C  C77  1  0.50000000  0.31697623  0.77773578  1
  C  C78  1  0.50000000  0.37546477  0.11085273  1
  C  C79  1  0.50000000  0.37584014  0.44489136  1
  C  C80  1  0.50000000  0.37722714  0.77785911  1
  C  C81  1  0.50000000  0.43523128  0.11063930  1
  C  C82  1  0.50000000  0.43574475  0.44478315  1
  C  C83  1  0.50000000  0.43751129  0.77775298  1
  C  C84  1  0.50000000  0.49481133  0.11081271  1
  C  C85  1  0.50000000  0.49548848  0.44476422  1
  C  C86  1  0.50000000  0.49775450  0.77777440  1
  C  C87  1  0.50000000  0.55442256  0.11161269  1
  C  C88  1  0.50000000  0.55519859  0.44407231  1
  C  C89  1  0.50000000  0.55802161  0.77789891  1
  C  C90  1  0.50000000  0.61278094  0.11389820  1
  C  C91  1  0.50000000  0.61288263  0.43846142  1
  C  C92  1  0.50000000  0.61834296  0.77788931  1
  C  C93  1  0.50000000  0.70423986  0.11727100  1
  C  C94  1  0.50000000  0.69692028  0.43460244  1
  C  C95  1  0.50000000  0.67838126  0.77746494  1
  C  C96  1  0.50000000  0.76047232  0.09896384  1
  C  C97  1  0.50000000  0.75283099  0.45386140  1
  C  C98  1  0.50000000  0.73815021  0.77640643  1
  C  C99  1  0.50000000  0.28548299  0.13824130  1
  C  C100  1  0.50000000  0.28594210  0.47269717  1
  C  C101  1  0.50000000  0.28695540  0.80514820  1
  C  C102  1  0.50000000  0.34546864  0.13877860  1
  C  C103  1  0.50000000  0.34602128  0.47279260  1
  C  C104  1  0.50000000  0.34717180  0.80555976  1
  C  C105  1  0.50000000  0.40520951  0.13868998  1
  C  C106  1  0.50000000  0.40588971  0.47269480  1
  C  C107  1  0.50000000  0.40723804  0.80548434  1
  C  C108  1  0.50000000  0.46494665  0.13864862  1
  C  C109  1  0.50000000  0.46588349  0.47266485  1
  C  C110  1  0.50000000  0.46757790  0.80543599  1
  C  C111  1  0.50000000  0.52436464  0.13905725  1
  C  C112  1  0.50000000  0.52572898  0.47243312  1
  C  C113  1  0.50000000  0.52796478  0.80566383  1
  C  C114  1  0.50000000  0.58346387  0.14085529  1
  C  C115  1  0.50000000  0.58552560  0.47095774  1
  C  C116  1  0.50000000  0.58815459  0.80566186  1
  C  C117  1  0.50000000  0.64830510  0.80548747  1
  C  C118  1  0.50000000  0.73597275  0.13707038  1
  C  C119  1  0.50000000  0.72040043  0.47377398  1
  C  C120  1  0.50000000  0.70868313  0.80366399  1
  C  C121  1  0.50000000  0.28530666  0.19431636  1
  C  C122  1  0.50000000  0.28627353  0.52862881  1
  C  C123  1  0.50000000  0.28680832  0.86094061  1
  C  C124  1  0.50000000  0.34529242  0.19414325  1
  C  C125  1  0.50000000  0.34644773  0.52806728  1
  C  C126  1  0.50000000  0.34700108  0.86078335  1
  C  C127  1  0.50000000  0.40498856  0.19426834  1
  C  C128  1  0.50000000  0.40645208  0.52817862  1
  C  C129  1  0.50000000  0.40707729  0.86089587  1
  C  C130  1  0.50000000  0.46469722  0.19424318  1
  C  C131  1  0.50000000  0.46673211  0.52826282  1
  C  C132  1  0.50000000  0.46749595  0.86113222  1
  C  C133  1  0.50000000  0.52408999  0.19422355  1
  C  C134  1  0.50000000  0.52718207  0.52768927  1
  C  C135  1  0.50000000  0.52800249  0.86138639  1
  C  C136  1  0.50000000  0.58357927  0.19579396  1
  C  C137  1  0.50000000  0.58808406  0.52676907  1
  C  C138  1  0.50000000  0.58830856  0.86116715  1
  C  C139  1  0.50000000  0.65073189  0.53365042  1
  C  C140  1  0.50000000  0.64887065  0.86098067  1
  C  C141  1  0.50000000  0.73995656  0.19398791  1
  C  C142  1  0.50000000  0.71280149  0.53030284  1
  C  C143  1  0.50000000  0.70942795  0.85876358  1
  C  C144  1  0.50000000  0.25604380  0.22325292  1
  C  C145  1  0.50000000  0.25709437  0.55752079  1
  C  C146  1  0.50000000  0.25735886  0.88919118  1
  C  C147  1  0.50000000  0.31517907  0.22210251  1
  C  C148  1  0.50000000  0.31636590  0.55599216  1
  C  C149  1  0.50000000  0.31670198  0.88854654  1
  C  C150  1  0.50000000  0.37513646  0.22214756  1
  C  C151  1  0.50000000  0.37657232  0.55583323  1
  C  C152  1  0.50000000  0.37695156  0.88854688  1
  C  C153  1  0.50000000  0.43484519  0.22231137  1
  C  C154  1  0.50000000  0.43677978  0.55603472  1
  C  C155  1  0.50000000  0.43720968  0.88867497  1
  C  C156  1  0.50000000  0.49433274  0.22223954  1
  C  C157  1  0.50000000  0.49713667  0.55574297  1
  C  C158  1  0.50000000  0.49750388  0.88884828  1
  C  C159  1  0.50000000  0.55374547  0.22253856  1
  C  C160  1  0.50000000  0.55810739  0.55488132  1
  C  C161  1  0.50000000  0.55806409  0.88910497  1
  C  C162  1  0.50000000  0.61313546  0.22362106  1
  C  C163  1  0.50000000  0.61938200  0.55557700  1
  C  C164  1  0.50000000  0.61862720  0.88863390  1
  C  C165  1  0.50000000  0.71125279  0.22347921  1
  C  C166  1  0.50000000  0.68140152  0.55780012  1
  C  C167  1  0.50000000  0.67997363  0.88705674  1
  C  C168  1  0.50000000  0.76911038  0.22283011  1
  C  C169  1  0.50000000  0.74043623  0.56174415  1
  C  C170  1  0.50000000  0.73915056  0.88498496  1
  C  C171  1  0.50000000  0.25603276  0.27660069  1
  C  C172  1  0.50000000  0.25732756  0.61073849  1
  C  C173  1  0.50000000  0.25709128  0.94241321  1
  C  C174  1  0.50000000  0.31517565  0.27786383  1
  C  C175  1  0.50000000  0.31666071  0.61150231  1
  C  C176  1  0.50000000  0.31638888  0.94402676  1
  C  C177  1  0.50000000  0.37513940  0.27785523  1
  C  C178  1  0.50000000  0.37693318  0.61149544  1
  C  C179  1  0.50000000  0.37658538  0.94420220  1
  C  C180  1  0.50000000  0.43484429  0.27773156  1
  C  C181  1  0.50000000  0.43719946  0.61136546  1
  C  C182  1  0.50000000  0.43678781  0.94400796  1
  C  C183  1  0.50000000  0.49433156  0.27783296  1
  C  C184  1  0.50000000  0.49750393  0.61118599  1
  C  C185  1  0.50000000  0.49715932  0.94426346  1
  C  C186  1  0.50000000  0.55374750  0.27752154  1
  C  C187  1  0.50000000  0.55805791  0.61096924  1
  C  C188  1  0.50000000  0.55812054  0.94518520  1
  C  C189  1  0.50000000  0.61314330  0.27637017  1
  C  C190  1  0.50000000  0.61862754  0.61139825  1
  C  C191  1  0.50000000  0.61941256  0.94446156  1
  C  C192  1  0.50000000  0.71121969  0.27641946  1
  C  C193  1  0.50000000  0.67999152  0.61298968  1
  C  C194  1  0.50000000  0.68145273  0.94228747  1
  C  C195  1  0.50000000  0.76907778  0.27730846  1
  C  C196  1  0.50000000  0.73915162  0.61489492  1
  C  C197  1  0.50000000  0.74051357  0.93812287  1
  H  H198  1  0.50000000  0.23319700  0.03571732  1
  H  H199  1  0.50000000  0.23283235  0.37101571  1
  H  H200  1  0.50000000  0.23417559  0.70354209  1
  H  H201  1  0.50000000  0.77395291  0.02024925  1
  H  H202  1  0.50000000  0.78610367  0.39008198  1
  H  H203  1  0.50000000  0.76144518  0.70357871  1
  H  H204  1  0.50000000  0.23283693  0.12878577  1
  H  H205  1  0.50000000  0.23313593  0.46414165  1
  H  H206  1  0.50000000  0.23422832  0.79668758  1
  H  H207  1  0.50000000  0.78618478  0.11026439  1
  H  H208  1  0.50000000  0.77383621  0.47967150  1
  H  H209  1  0.50000000  0.76139878  0.79660726  1
  H  H210  1  0.50000000  0.23262755  0.20325533  1
  H  H211  1  0.50000000  0.23359488  0.53780867  1
  H  H212  1  0.50000000  0.23403928  0.86891977  1
  H  H213  1  0.50000000  0.79264292  0.20292421  1
  H  H214  1  0.50000000  0.76455729  0.54435218  1
  H  H215  1  0.50000000  0.76218418  0.86409237  1
  H  H216  1  0.50000000  0.23257043  0.29645289  1
  H  H217  1  0.50000000  0.23393729  0.63078880  1
  H  H218  1  0.50000000  0.23361636  0.96224005  1
  H  H219  1  0.50000000  0.79254695  0.29743877  1
  H  H220  1  0.50000000  0.76224976  0.63559575  1
  H  H221  1  0.50000000  0.76468068  0.95533799  1
  H  H222  1  0.50000000  0.65417360  0.00669942  1
  H  H223  1  0.50000000  0.63635522  0.04555594  1
  H  H224  1  0.50000000  0.63601794  0.36612668  1
  H  H225  1  0.50000000  0.67148687  0.05699274  1
  H  H226  1  0.50000000  0.68331902  0.35684752  1
  H  H227  1  0.50000000  0.63610728  0.13359664  1
  H  H228  1  0.50000000  0.63628866  0.45473880  1
  H  H229  1  0.50000000  0.68335953  0.14288079  1
  H  H230  1  0.50000000  0.67131432  0.44253640  1
  H  H231  1  0.50000000  0.65424875  0.49335816  1
  H  H232  1  0.50000000  0.63633188  0.20338354  1
  H  H233  1  0.50000000  0.68742434  0.20541346  1
  H  H234  1  0.50000000  0.63638183  0.29648610  1
  H  H235  1  0.50000000  0.68736640  0.29439657  1
