# generated using pymatgen
data_H19C99
_symmetry_space_group_name_H-M   'P 1'
_cell_length_a   10.00000000
_cell_length_b   41.10890000
_cell_length_c   25.84605366
_cell_angle_alpha   90.00000000
_cell_angle_beta   90.00000000
_cell_angle_gamma   90.00000000
_symmetry_Int_Tables_number   1
_chemical_formula_structural   H19C99
_chemical_formula_sum   'H38 C198'
_cell_volume   10625.02835404
_cell_formula_units_Z   2
loop_
 _symmetry_equiv_pos_site_id
 _symmetry_equiv_pos_as_xyz
  1  'x, y, z'
loop_
 _atom_site_type_symbol
 _atom_site_label
 _atom_site_symmetry_multiplicity
 _atom_site_fract_x
 _atom_site_fract_y
 _atom_site_fract_z
 _atom_site_occupancy
  C  C0  1  0.50000000  0.28349758  0.30600570  1
  C  C1  1  0.50000000  0.28676859  0.63958534  1
  C  C2  1  0.50000000  0.28578300  0.97089086  1
  C  C3  1  0.50000000  0.34349568  0.30603072  1
  C  C4  1  0.50000000  0.34700582  0.63951465  1
  C  C5  1  0.50000000  0.34599843  0.97168308  1
  C  C6  1  0.50000000  0.40321595  0.30586048  1
  C  C7  1  0.50000000  0.40744830  0.63915403  1
  C  C8  1  0.50000000  0.40628954  0.97166291  1
  C  C9  1  0.50000000  0.46266929  0.30592086  1
  C  C10  1  0.50000000  0.46817712  0.63888263  1
  C  C11  1  0.50000000  0.46692617  0.97217015  1
  C  C12  1  0.50000000  0.52196472  0.30421037  1
  C  C13  1  0.50000000  0.52872583  0.63919012  1
  C  C14  1  0.50000000  0.52807069  0.97310296  1
  C  C15  1  0.50000000  0.59003781  0.63871076  1
  C  C16  1  0.50000000  0.59098632  0.96594341  1
  C  C17  1  0.50000000  0.66805859  0.30411041  1
  C  C18  1  0.50000000  0.65102143  0.63973508  1
  C  C19  1  0.50000000  0.65394729  0.97339700  1
  C  C20  1  0.50000000  0.72769500  0.30743559  1
  C  C21  1  0.50000000  0.71109783  0.64057854  1
  C  C22  1  0.50000000  0.71500629  0.96854739  1
  C  C23  1  0.50000000  0.28506369  0.02659237  1
  C  C24  1  0.50000000  0.28387484  0.36204828  1
  C  C25  1  0.50000000  0.28704940  0.69507219  1
  C  C26  1  0.50000000  0.34512337  0.02688166  1
  C  C27  1  0.50000000  0.34391721  0.36142772  1
  C  C28  1  0.50000000  0.34733139  0.69456483  1
  C  C29  1  0.50000000  0.40510893  0.02719344  1
  C  C30  1  0.50000000  0.40368170  0.36149478  1
  C  C31  1  0.50000000  0.40773111  0.69467055  1
  C  C32  1  0.50000000  0.46507625  0.02739773  1
  C  C33  1  0.50000000  0.46314119  0.36107148  1
  C  C34  1  0.50000000  0.46830728  0.69440671  1
  C  C35  1  0.50000000  0.52491507  0.02892579  1
  C  C36  1  0.50000000  0.52198063  0.35896444  1
  C  C37  1  0.50000000  0.52881169  0.69456486  1
  C  C38  1  0.50000000  0.58969907  0.69446774  1
  C  C39  1  0.50000000  0.65905971  0.02901002  1
  C  C40  1  0.50000000  0.66655418  0.35865779  1
  C  C41  1  0.50000000  0.65027604  0.69460387  1
  C  C42  1  0.50000000  0.71917176  0.02361431  1
  C  C43  1  0.50000000  0.72582669  0.36395018  1
  C  C44  1  0.50000000  0.71041921  0.69565398  1
  C  C45  1  0.50000000  0.25542609  0.05504375  1
  C  C46  1  0.50000000  0.25478709  0.39179641  1
  C  C47  1  0.50000000  0.25756898  0.72362989  1
  C  C48  1  0.50000000  0.31476212  0.05467292  1
  C  C49  1  0.50000000  0.31404720  0.38962383  1
  C  C50  1  0.50000000  0.31714748  0.72234682  1
  C  C51  1  0.50000000  0.37488973  0.05503135  1
  C  C52  1  0.50000000  0.37405114  0.38955745  1
  C  C53  1  0.50000000  0.37762939  0.72232786  1
  C  C54  1  0.50000000  0.43469808  0.05522341  1
  C  C55  1  0.50000000  0.43366916  0.38946623  1
  C  C56  1  0.50000000  0.43803488  0.72233595  1
  C  C57  1  0.50000000  0.49443679  0.05581145  1
  C  C58  1  0.50000000  0.49318194  0.38855738  1
  C  C59  1  0.50000000  0.49852007  0.72222104  1
  C  C60  1  0.50000000  0.55190585  0.06209860  1
  C  C61  1  0.50000000  0.55134880  0.38563781  1
  C  C62  1  0.50000000  0.55931973  0.72230558  1
  C  C63  1  0.50000000  0.63310586  0.06444520  1
  C  C64  1  0.50000000  0.63621958  0.38330108  1
  C  C65  1  0.50000000  0.61982888  0.72227307  1
  C  C66  1  0.50000000  0.69083694  0.05422033  1
  C  C67  1  0.50000000  0.69469114  0.38981150  1
  C  C68  1  0.50000000  0.68031417  0.72247593  1
  C  C69  1  0.50000000  0.75011110  0.04935603  1
  C  C70  1  0.50000000  0.75338385  0.39732244  1
  C  C71  1  0.50000000  0.73994330  0.72375691  1
  C  C72  1  0.50000000  0.25481914  0.10827258  1
  C  C73  1  0.50000000  0.25541442  0.44504695  1
  C  C74  1  0.50000000  0.25760172  0.77658766  1
  C  C75  1  0.50000000  0.31406258  0.11042214  1
  C  C76  1  0.50000000  0.31476239  0.44538067  1
  C  C77  1  0.50000000  0.31716932  0.77772451  1
  C  C78  1  0.50000000  0.37405911  0.11051308  1
  C  C79  1  0.50000000  0.37488771  0.44504518  1
  C  C80  1  0.50000000  0.37763948  0.77774694  1
  C  C81  1  0.50000000  0.43366805  0.11059891  1
  C  C82  1  0.50000000  0.43470390  0.44484334  1
  C  C83  1  0.50000000  0.43803809  0.77772999  1
  C  C84  1  0.50000000  0.49316739  0.11149275  1
  C  C85  1  0.50000000  0.49445708  0.44424406  1
  C  C86  1  0.50000000  0.49851944  0.77783543  1
  C  C87  1  0.50000000  0.55134843  0.11436069  1
  C  C88  1  0.50000000  0.55190586  0.43789253  1
  C  C89  1  0.50000000  0.55932038  0.77774249  1
  C  C90  1  0.50000000  0.63620695  0.11654294  1
  C  C91  1  0.50000000  0.63308016  0.43540830  1
  C  C92  1  0.50000000  0.61982368  0.77774102  1
  C  C93  1  0.50000000  0.69469474  0.11009087  1
  C  C94  1  0.50000000  0.69080677  0.44570822  1
  C  C95  1  0.50000000  0.68029433  0.77750819  1
  C  C96  1  0.50000000  0.75339934  0.10256687  1
  C  C97  1  0.50000000  0.75007755  0.45053183  1
  C  C98  1  0.50000000  0.73991067  0.77640196  1
  C  C99  1  0.50000000  0.28390361  0.13799790  1
  C  C100  1  0.50000000  0.28507000  0.47345755  1
  C  C101  1  0.50000000  0.28709944  0.80503393  1
  C  C102  1  0.50000000  0.34392711  0.13863009  1
  C  C103  1  0.50000000  0.34511985  0.47319163  1
  C  C104  1  0.50000000  0.34734683  0.80551732  1
  C  C105  1  0.50000000  0.40368612  0.13857320  1
  C  C106  1  0.50000000  0.40511248  0.47287957  1
  C  C107  1  0.50000000  0.40773694  0.80540502  1
  C  C108  1  0.50000000  0.46313454  0.13899208  1
  C  C109  1  0.50000000  0.46509038  0.47266197  1
  C  C110  1  0.50000000  0.46831249  0.80565924  1
  C  C111  1  0.50000000  0.52197387  0.14103760  1
  C  C112  1  0.50000000  0.52494185  0.47113291  1
  C  C113  1  0.50000000  0.52881215  0.80548888  1
  C  C114  1  0.50000000  0.58969554  0.80557507  1
  C  C115  1  0.50000000  0.66654519  0.14120393  1
  C  C116  1  0.50000000  0.65901341  0.47092601  1
  C  C117  1  0.50000000  0.65026477  0.80539352  1
  C  C118  1  0.50000000  0.72582908  0.13593213  1
  C  C119  1  0.50000000  0.71914471  0.47632291  1
  C  C120  1  0.50000000  0.71036378  0.80437377  1
  C  C121  1  0.50000000  0.28352811  0.19401453  1
  C  C122  1  0.50000000  0.28578505  0.52916897  1
  C  C123  1  0.50000000  0.28680023  0.86049119  1
  C  C124  1  0.50000000  0.34350268  0.19402295  1
  C  C125  1  0.50000000  0.34599205  0.52839895  1
  C  C126  1  0.50000000  0.34701898  0.86056638  1
  C  C127  1  0.50000000  0.40321983  0.19420583  1
  C  C128  1  0.50000000  0.40628837  0.52841262  1
  C  C129  1  0.50000000  0.40745551  0.86092168  1
  C  C130  1  0.50000000  0.46266466  0.19413790  1
  C  C131  1  0.50000000  0.46693057  0.52789632  1
  C  C132  1  0.50000000  0.46817835  0.86118007  1
  C  C133  1  0.50000000  0.52195773  0.19578793  1
  C  C134  1  0.50000000  0.52807751  0.52695840  1
  C  C135  1  0.50000000  0.52871921  0.86085891  1
  C  C136  1  0.50000000  0.59097408  0.53399132  1
  C  C137  1  0.50000000  0.59003199  0.86132141  1
  C  C138  1  0.50000000  0.66808281  0.19573272  1
  C  C139  1  0.50000000  0.65392892  0.52658167  1
  C  C140  1  0.50000000  0.65101333  0.86026580  1
  C  C141  1  0.50000000  0.72768763  0.19242894  1
  C  C142  1  0.50000000  0.71498294  0.53140647  1
  C  C143  1  0.50000000  0.71104534  0.85941764  1
  C  C144  1  0.50000000  0.25417562  0.22328450  1
  C  C145  1  0.50000000  0.25661648  0.55841404  1
  C  C146  1  0.50000000  0.25710803  0.88857075  1
  C  C147  1  0.50000000  0.31339446  0.22206367  1
  C  C148  1  0.50000000  0.31603232  0.55641160  1
  C  C149  1  0.50000000  0.31663605  0.88821109  1
  C  C150  1  0.50000000  0.37334851  0.22226317  1
  C  C151  1  0.50000000  0.37642478  0.55624692  1
  C  C152  1  0.50000000  0.37709370  0.88845757  1
  C  C153  1  0.50000000  0.43287790  0.22230783  1
  C  C154  1  0.50000000  0.43688084  0.55601995  1
  C  C155  1  0.50000000  0.43753100  0.88878790  1
  C  C156  1  0.50000000  0.49217629  0.22255084  1
  C  C157  1  0.50000000  0.49802045  0.55511483  1
  C  C158  1  0.50000000  0.49834783  0.88896218  1
  C  C159  1  0.50000000  0.55145680  0.22366169  1
  C  C160  1  0.50000000  0.55946253  0.55628265  1
  C  C161  1  0.50000000  0.55920590  0.88841894  1
  C  C162  1  0.50000000  0.63871616  0.22375212  1
  C  C163  1  0.50000000  0.62202309  0.55639091  1
  C  C164  1  0.50000000  0.62110279  0.88817156  1
  C  C165  1  0.50000000  0.69832571  0.22207945  1
  C  C166  1  0.50000000  0.68331591  0.55632328  1
  C  C167  1  0.50000000  0.68163472  0.88787947  1
  C  C168  1  0.50000000  0.75680934  0.22296416  1
  C  C169  1  0.50000000  0.74335421  0.56229177  1
  C  C170  1  0.50000000  0.74152411  0.88510852  1
  C  C171  1  0.50000000  0.25416417  0.27664722  1
  C  C172  1  0.50000000  0.25708727  0.61146639  1
  C  C173  1  0.50000000  0.25662619  0.94160933  1
  C  C174  1  0.50000000  0.31338312  0.27799438  1
  C  C175  1  0.50000000  0.31661742  0.61187662  1
  C  C176  1  0.50000000  0.31604163  0.94367309  1
  C  C177  1  0.50000000  0.37334598  0.27779530  1
  C  C178  1  0.50000000  0.37708367  0.61162646  1
  C  C179  1  0.50000000  0.37642752  0.94383709  1
  C  C180  1  0.50000000  0.43287781  0.27776340  1
  C  C181  1  0.50000000  0.43752480  0.61128377  1
  C  C182  1  0.50000000  0.43687913  0.94405564  1
  C  C183  1  0.50000000  0.49217640  0.27748296  1
  C  C184  1  0.50000000  0.49834795  0.61109944  1
  C  C185  1  0.50000000  0.49801580  0.94494570  1
  C  C186  1  0.50000000  0.55145328  0.27629643  1
  C  C187  1  0.50000000  0.55921315  0.61161215  1
  C  C188  1  0.50000000  0.55945597  0.94374928  1
  C  C189  1  0.50000000  0.63870020  0.27600610  1
  C  C190  1  0.50000000  0.62110253  0.61181994  1
  C  C191  1  0.50000000  0.62204091  0.94358833  1
  C  C192  1  0.50000000  0.69832047  0.27779345  1
  C  C193  1  0.50000000  0.68165136  0.61212911  1
  C  C194  1  0.50000000  0.68332805  0.94366302  1
  C  C195  1  0.50000000  0.75681536  0.27685584  1
  C  C196  1  0.50000000  0.74157426  0.61481416  1
  C  C197  1  0.50000000  0.74335546  0.93760967  1
  H  H198  1  0.50000000  0.23216081  0.03463145  1
  H  H199  1  0.50000000  0.23112493  0.37241184  1
  H  H200  1  0.50000000  0.23414886  0.70368853  1
  H  H201  1  0.50000000  0.77252076  0.02654478  1
  H  H202  1  0.50000000  0.77796643  0.38093291  1
  H  H203  1  0.50000000  0.76337826  0.70412023  1
  H  H204  1  0.50000000  0.23113169  0.12754928  1
  H  H205  1  0.50000000  0.23221842  0.46568476  1
  H  H206  1  0.50000000  0.23424313  0.79672162  1
  H  H207  1  0.50000000  0.77796991  0.11899400  1
  H  H208  1  0.50000000  0.77253734  0.47318375  1
  H  H209  1  0.50000000  0.76326786  0.79630234  1
  H  H210  1  0.50000000  0.23067325  0.20340824  1
  H  H211  1  0.50000000  0.23309017  0.53876546  1
  H  H212  1  0.50000000  0.23385656  0.86811631  1
  H  H213  1  0.50000000  0.78046791  0.20343629  1
  H  H214  1  0.50000000  0.76723801  0.54390147  1
  H  H215  1  0.50000000  0.76413678  0.86319684  1
  H  H216  1  0.50000000  0.23061735  0.29636878  1
  H  H217  1  0.50000000  0.23384717  0.63194739  1
  H  H218  1  0.50000000  0.23305842  0.96110293  1
  H  H219  1  0.50000000  0.78051028  0.29625034  1
  H  H220  1  0.50000000  0.76422499  0.63665054  1
  H  H221  1  0.50000000  0.76730959  0.95572674  1
  H  H222  1  0.50000000  0.59226573  0.00628658  1
  H  H223  1  0.50000000  0.57540045  0.04638939  1
  H  H224  1  0.50000000  0.57430294  0.36529213  1
  H  H225  1  0.50000000  0.60870923  0.05144725  1
  H  H226  1  0.50000000  0.61417586  0.36054500  1
  H  H227  1  0.50000000  0.57424929  0.13486450  1
  H  H228  1  0.50000000  0.57547310  0.45331282  1
  H  H229  1  0.50000000  0.61410486  0.13913112  1
  H  H230  1  0.50000000  0.60863914  0.44820237  1
  H  H231  1  0.50000000  0.59218791  0.49360540  1
  H  H232  1  0.50000000  0.57448454  0.20328992  1
  H  H233  1  0.50000000  0.61569874  0.20361859  1
  H  H234  1  0.50000000  0.57448427  0.29663826  1
  H  H235  1  0.50000000  0.61561056  0.29591219  1
