# generated using pymatgen
data_H2C11
_symmetry_space_group_name_H-M   'P 1'
_cell_length_a   10.00000000
_cell_length_b   41.10890000
_cell_length_c   25.76714889
_cell_angle_alpha   90.00000000
_cell_angle_beta   90.00000000
_cell_angle_gamma   90.00000000
_symmetry_Int_Tables_number   1
_chemical_formula_structural   H2C11
_chemical_formula_sum   'H36 C198'
_cell_volume   10592.59146829
_cell_formula_units_Z   18
loop_
 _symmetry_equiv_pos_site_id
 _symmetry_equiv_pos_as_xyz
  1  'x, y, z'
loop_
 _atom_site_type_symbol
 _atom_site_label
 _atom_site_symmetry_multiplicity
 _atom_site_fract_x
 _atom_site_fract_y
 _atom_site_fract_z
 _atom_site_occupancy
  C  C0  1  0.50000000  0.28662452  0.30548524  1
  C  C1  1  0.50000000  0.28672457  0.63884964  1
  C  C2  1  0.50000000  0.28668135  0.97192065  1
  C  C3  1  0.50000000  0.34676243  0.30574769  1
  C  C4  1  0.50000000  0.34692732  0.63909385  1
  C  C5  1  0.50000000  0.34685408  0.97222943  1
  C  C6  1  0.50000000  0.40681041  0.30559293  1
  C  C7  1  0.50000000  0.40706172  0.63894818  1
  C  C8  1  0.50000000  0.40694640  0.97207324  1
  C  C9  1  0.50000000  0.46690625  0.30568752  1
  C  C10  1  0.50000000  0.46728000  0.63906008  1
  C  C11  1  0.50000000  0.46714729  0.97204313  1
  C  C12  1  0.50000000  0.52693095  0.30562187  1
  C  C13  1  0.50000000  0.52746586  0.63909615  1
  C  C14  1  0.50000000  0.52730631  0.97191411  1
  C  C15  1  0.50000000  0.58703983  0.30562173  1
  C  C16  1  0.50000000  0.58786237  0.63884673  1
  C  C17  1  0.50000000  0.58771372  0.97185841  1
  C  C18  1  0.50000000  0.64628603  0.30698642  1
  C  C19  1  0.50000000  0.64828575  0.63810975  1
  C  C20  1  0.50000000  0.64848321  0.97288070  1
  C  C21  1  0.50000000  0.74463086  0.30680699  1
  C  C22  1  0.50000000  0.70797426  0.63978697  1
  C  C23  1  0.50000000  0.71218278  0.97120317  1
  C  C24  1  0.50000000  0.28661448  0.02774477  1
  C  C25  1  0.50000000  0.28663632  0.36136635  1
  C  C26  1  0.50000000  0.28673755  0.69461850  1
  C  C27  1  0.50000000  0.34679802  0.02750426  1
  C  C28  1  0.50000000  0.34677416  0.36105323  1
  C  C29  1  0.50000000  0.34695337  0.69433912  1
  C  C30  1  0.50000000  0.40686113  0.02765998  1
  C  C31  1  0.50000000  0.40682078  0.36119459  1
  C  C32  1  0.50000000  0.40708608  0.69449836  1
  C  C33  1  0.50000000  0.46697616  0.02751106  1
  C  C34  1  0.50000000  0.46692038  0.36118841  1
  C  C35  1  0.50000000  0.46730714  0.69447074  1
  C  C36  1  0.50000000  0.52695768  0.02740763  1
  C  C37  1  0.50000000  0.52692527  0.36126874  1
  C  C38  1  0.50000000  0.52747988  0.69450190  1
  C  C39  1  0.50000000  0.58684890  0.02728521  1
  C  C40  1  0.50000000  0.58694361  0.36127830  1
  C  C41  1  0.50000000  0.58777968  0.69445215  1
  C  C42  1  0.50000000  0.64582094  0.02683767  1
  C  C43  1  0.50000000  0.64600308  0.36031409  1
  C  C44  1  0.50000000  0.64785990  0.69363492  1
  C  C45  1  0.50000000  0.72153594  0.02551188  1
  C  C46  1  0.50000000  0.73967992  0.36080651  1
  C  C47  1  0.50000000  0.70754079  0.69521246  1
  C  C48  1  0.50000000  0.25721637  0.05656369  1
  C  C49  1  0.50000000  0.25724689  0.39018314  1
  C  C50  1  0.50000000  0.25731652  0.72334655  1
  C  C51  1  0.50000000  0.31662110  0.05537987  1
  C  C52  1  0.50000000  0.31662920  0.38898567  1
  C  C53  1  0.50000000  0.31676183  0.72218203  1
  C  C54  1  0.50000000  0.37685393  0.05544364  1
  C  C55  1  0.50000000  0.37683278  0.38898125  1
  C  C56  1  0.50000000  0.37705806  0.72222678  1
  C  C57  1  0.50000000  0.43690518  0.05547834  1
  C  C58  1  0.50000000  0.43686777  0.38909007  1
  C  C59  1  0.50000000  0.43717462  0.72231264  1
  C  C60  1  0.50000000  0.49696409  0.05531829  1
  C  C61  1  0.50000000  0.49691850  0.38908356  1
  C  C62  1  0.50000000  0.49738588  0.72222735  1
  C  C63  1  0.50000000  0.55689904  0.05530753  1
  C  C64  1  0.50000000  0.55685449  0.38923215  1
  C  C65  1  0.50000000  0.55765614  0.72230633  1
  C  C66  1  0.50000000  0.61670474  0.05483458  1
  C  C67  1  0.50000000  0.61676793  0.38903686  1
  C  C68  1  0.50000000  0.61784870  0.72206732  1
  C  C69  1  0.50000000  0.67761828  0.72224358  1
  C  C70  1  0.50000000  0.75297140  0.04521563  1
  C  C71  1  0.50000000  0.76170339  0.40130996  1
  C  C72  1  0.50000000  0.73704438  0.72353070  1
  C  C73  1  0.50000000  0.25721945  0.10988356  1
  C  C74  1  0.50000000  0.25726626  0.44348915  1
  C  C75  1  0.50000000  0.25731069  0.77664302  1
  C  C76  1  0.50000000  0.31660725  0.11103937  1
  C  C77  1  0.50000000  0.31664688  0.44463490  1
  C  C78  1  0.50000000  0.31675301  0.77779567  1
  C  C79  1  0.50000000  0.37681369  0.11102236  1
  C  C80  1  0.50000000  0.37687851  0.44455332  1
  C  C81  1  0.50000000  0.37705056  0.77775085  1
  C  C82  1  0.50000000  0.43685156  0.11092027  1
  C  C83  1  0.50000000  0.43692811  0.44452519  1
  C  C84  1  0.50000000  0.43716756  0.77767131  1
  C  C85  1  0.50000000  0.49690833  0.11092070  1
  C  C86  1  0.50000000  0.49698495  0.44467782  1
  C  C87  1  0.50000000  0.49738010  0.77775699  1
  C  C88  1  0.50000000  0.55685450  0.11077158  1
  C  C89  1  0.50000000  0.55690906  0.44468821  1
  C  C90  1  0.50000000  0.55765138  0.77767022  1
  C  C91  1  0.50000000  0.61678456  0.11101048  1
  C  C92  1  0.50000000  0.61670822  0.44518104  1
  C  C93  1  0.50000000  0.61784509  0.77788698  1
  C  C94  1  0.50000000  0.67761467  0.77770278  1
  C  C95  1  0.50000000  0.76165601  0.09870729  1
  C  C96  1  0.50000000  0.75301409  0.45481267  1
  C  C97  1  0.50000000  0.73703812  0.77646527  1
  C  C98  1  0.50000000  0.28662118  0.13866018  1
  C  C99  1  0.50000000  0.28666341  0.47222962  1
  C  C100  1  0.50000000  0.28673098  0.80536501  1
  C  C101  1  0.50000000  0.34675646  0.13895996  1
  C  C102  1  0.50000000  0.34682510  0.47249067  1
  C  C103  1  0.50000000  0.34694165  0.80563808  1
  C  C104  1  0.50000000  0.40680457  0.13881194  1
  C  C105  1  0.50000000  0.40688682  0.47234119  1
  C  C106  1  0.50000000  0.40707475  0.80548803  1
  C  C107  1  0.50000000  0.46690944  0.13881561  1
  C  C108  1  0.50000000  0.46700074  0.47248671  1
  C  C109  1  0.50000000  0.46729825  0.80551841  1
  C  C110  1  0.50000000  0.52692123  0.13873444  1
  C  C111  1  0.50000000  0.52697454  0.47258838  1
  C  C112  1  0.50000000  0.52747285  0.80548227  1
  C  C113  1  0.50000000  0.58695005  0.13873543  1
  C  C114  1  0.50000000  0.58685075  0.47271998  1
  C  C115  1  0.50000000  0.58777718  0.80551800  1
  C  C116  1  0.50000000  0.64602340  0.13977502  1
  C  C117  1  0.50000000  0.64581893  0.47318673  1
  C  C118  1  0.50000000  0.64785734  0.80631621  1
  C  C119  1  0.50000000  0.73965060  0.13922731  1
  C  C120  1  0.50000000  0.72155946  0.47446238  1
  C  C121  1  0.50000000  0.70752786  0.80474612  1
  C  C122  1  0.50000000  0.28660970  0.19454539  1
  C  C123  1  0.50000000  0.28671619  0.52801890  1
  C  C124  1  0.50000000  0.28670226  0.86113561  1
  C  C125  1  0.50000000  0.34675404  0.19426124  1
  C  C126  1  0.50000000  0.34688196  0.52776233  1
  C  C127  1  0.50000000  0.34690654  0.86087944  1
  C  C128  1  0.50000000  0.40680381  0.19441332  1
  C  C129  1  0.50000000  0.40697639  0.52792764  1
  C  C130  1  0.50000000  0.40704074  0.86103912  1
  C  C131  1  0.50000000  0.46690336  0.19431809  1
  C  C132  1  0.50000000  0.46717600  0.52795401  1
  C  C133  1  0.50000000  0.46726430  0.86092930  1
  C  C134  1  0.50000000  0.52692564  0.19438836  1
  C  C135  1  0.50000000  0.52732538  0.52808116  1
  C  C136  1  0.50000000  0.52745336  0.86088660  1
  C  C137  1  0.50000000  0.58704131  0.19439829  1
  C  C138  1  0.50000000  0.58772246  0.52813568  1
  C  C139  1  0.50000000  0.58785855  0.86112566  1
  C  C140  1  0.50000000  0.64629874  0.19310913  1
  C  C141  1  0.50000000  0.64847820  0.52712882  1
  C  C142  1  0.50000000  0.64828319  0.86184934  1
  C  C143  1  0.50000000  0.74461541  0.19323354  1
  C  C144  1  0.50000000  0.71217199  0.52874941  1
  C  C145  1  0.50000000  0.70796426  0.86016124  1
  C  C146  1  0.50000000  0.25722070  0.22337140  1
  C  C147  1  0.50000000  0.25733639  0.55680548  1
  C  C148  1  0.50000000  0.25727086  0.88983057  1
  C  C149  1  0.50000000  0.31659606  0.22217450  1
  C  C150  1  0.50000000  0.31671518  0.55561927  1
  C  C151  1  0.50000000  0.31670881  0.88871632  1
  C  C152  1  0.50000000  0.37681030  0.22220552  1
  C  C153  1  0.50000000  0.37697166  0.55567878  1
  C  C154  1  0.50000000  0.37699666  0.88877131  1
  C  C155  1  0.50000000  0.43686856  0.22225905  1
  C  C156  1  0.50000000  0.43707382  0.55578332  1
  C  C157  1  0.50000000  0.43712572  0.88882801  1
  C  C158  1  0.50000000  0.49693447  0.22220218  1
  C  C159  1  0.50000000  0.49726394  0.55580192  1
  C  C160  1  0.50000000  0.49735096  0.88864752  1
  C  C161  1  0.50000000  0.55692966  0.22233922  1
  C  C162  1  0.50000000  0.55754733  0.55594661  1
  C  C163  1  0.50000000  0.55763342  0.88874757  1
  C  C164  1  0.50000000  0.61703284  0.22203497  1
  C  C165  1  0.50000000  0.61808075  0.55554477  1
  C  C166  1  0.50000000  0.61794688  0.88908457  1
  C  C167  1  0.50000000  0.68012861  0.55356407  1
  C  C168  1  0.50000000  0.67878714  0.89007713  1
  C  C169  1  0.50000000  0.77296476  0.22246916  1
  C  C170  1  0.50000000  0.73982211  0.56179479  1
  C  C171  1  0.50000000  0.73824328  0.88555218  1
  C  C172  1  0.50000000  0.25723872  0.27667722  1
  C  C173  1  0.50000000  0.25732156  0.61010067  1
  C  C174  1  0.50000000  0.25728582  0.94316869  1
  C  C175  1  0.50000000  0.31660404  0.27784264  1
  C  C176  1  0.50000000  0.31672910  0.61125334  1
  C  C177  1  0.50000000  0.31669473  0.94434328  1
  C  C178  1  0.50000000  0.37681655  0.27780657  1
  C  C179  1  0.50000000  0.37702068  0.61121505  1
  C  C180  1  0.50000000  0.37694305  0.94431573  1
  C  C181  1  0.50000000  0.43687211  0.27774487  1
  C  C182  1  0.50000000  0.43714637  0.61116185  1
  C  C183  1  0.50000000  0.43704272  0.94421263  1
  C  C184  1  0.50000000  0.49693859  0.27781082  1
  C  C185  1  0.50000000  0.49736622  0.61134138  1
  C  C186  1  0.50000000  0.49724033  0.94419624  1
  C  C187  1  0.50000000  0.55693172  0.27767165  1
  C  C188  1  0.50000000  0.55764242  0.61123018  1
  C  C189  1  0.50000000  0.55753184  0.94404193  1
  C  C190  1  0.50000000  0.61703727  0.27801518  1
  C  C191  1  0.50000000  0.61794716  0.61088853  1
  C  C192  1  0.50000000  0.61807705  0.94444538  1
  C  C193  1  0.50000000  0.67878914  0.60988037  1
  C  C194  1  0.50000000  0.68013000  0.94639970  1
  C  C195  1  0.50000000  0.77297877  0.27759479  1
  C  C196  1  0.50000000  0.73824504  0.61435577  1
  C  C197  1  0.50000000  0.73983241  0.93812328  1
  H  H198  1  0.50000000  0.23379639  0.03649153  1
  H  H199  1  0.50000000  0.23382015  0.37015397  1
  H  H200  1  0.50000000  0.23391035  0.70325196  1
  H  H201  1  0.50000000  0.77399103  0.01921415  1
  H  H202  1  0.50000000  0.78785010  0.39250080  1
  H  H203  1  0.50000000  0.76052903  0.70394315  1
  H  H204  1  0.50000000  0.23383616  0.13003454  1
  H  H205  1  0.50000000  0.23381098  0.46339327  1
  H  H206  1  0.50000000  0.23390584  0.79675082  1
  H  H207  1  0.50000000  0.78781432  0.10736248  1
  H  H208  1  0.50000000  0.77397987  0.48095971  1
  H  H209  1  0.50000000  0.76049345  0.79616366  1
  H  H210  1  0.50000000  0.23377191  0.20341122  1
  H  H211  1  0.50000000  0.23392802  0.53678486  1
  H  H212  1  0.50000000  0.23387115  0.86969864  1
  H  H213  1  0.50000000  0.79657801  0.20263863  1
  H  H214  1  0.50000000  0.76400007  0.54465437  1
  H  H215  1  0.50000000  0.76099470  0.86388848  1
  H  H216  1  0.50000000  0.23381605  0.29671567  1
  H  H217  1  0.50000000  0.23386217  0.63002944  1
  H  H218  1  0.50000000  0.23392231  0.96339077  1
  H  H219  1  0.50000000  0.79658754  0.29746620  1
  H  H220  1  0.50000000  0.76103069  0.63589201  1
  H  H221  1  0.50000000  0.76404838  0.95510845  1
  H  H222  1  0.50000000  0.66980246  0.28735686  1
  H  H223  1  0.50000000  0.72183844  0.28484969  1
  H  H224  1  0.50000000  0.66773608  0.04943767  1
  H  H225  1  0.50000000  0.66921744  0.38065598  1
  H  H226  1  0.50000000  0.70318873  0.05570592  1
  H  H227  1  0.50000000  0.71394453  0.37152980  1
  H  H228  1  0.50000000  0.66924136  0.11945873  1
  H  H229  1  0.50000000  0.66779388  0.45077660  1
  H  H230  1  0.50000000  0.71392900  0.12836448  1
  H  H231  1  0.50000000  0.70320591  0.44429224  1
  H  H232  1  0.50000000  0.66976869  0.21291321  1
  H  H233  1  0.50000000  0.72181516  0.21515024  1
