# generated using pymatgen
data_H2C11
_symmetry_space_group_name_H-M   'P 1'
_cell_length_a   10.00000000
_cell_length_b   41.10890000
_cell_length_c   25.76106151
_cell_angle_alpha   90.00000000
_cell_angle_beta   90.00000000
_cell_angle_gamma   90.00000000
_symmetry_Int_Tables_number   1
_chemical_formula_structural   H2C11
_chemical_formula_sum   'H36 C198'
_cell_volume   10590.08901535
_cell_formula_units_Z   18
loop_
 _symmetry_equiv_pos_site_id
 _symmetry_equiv_pos_as_xyz
  1  'x, y, z'
loop_
 _atom_site_type_symbol
 _atom_site_label
 _atom_site_symmetry_multiplicity
 _atom_site_fract_x
 _atom_site_fract_y
 _atom_site_fract_z
 _atom_site_occupancy
  C  C0  1  0.50000000  0.28140273  0.30632427  1
  C  C1  1  0.50000000  0.28770897  0.64014678  1
  C  C2  1  0.50000000  0.28571699  0.96972626  1
  C  C3  1  0.50000000  0.34132858  0.30607536  1
  C  C4  1  0.50000000  0.34800130  0.63964224  1
  C  C5  1  0.50000000  0.34604087  0.97110088  1
  C  C6  1  0.50000000  0.40076410  0.30578201  1
  C  C7  1  0.50000000  0.40856430  0.63875818  1
  C  C8  1  0.50000000  0.40653240  0.97187103  1
  C  C9  1  0.50000000  0.45931912  0.30548789  1
  C  C10  1  0.50000000  0.46959228  0.63740508  1
  C  C11  1  0.50000000  0.46784617  0.97438275  1
  C  C12  1  0.50000000  0.54068090  0.30548790  1
  C  C13  1  0.50000000  0.53040773  0.63740508  1
  C  C14  1  0.50000000  0.53215385  0.97438275  1
  C  C15  1  0.50000000  0.59923592  0.30578202  1
  C  C16  1  0.50000000  0.59143571  0.63875818  1
  C  C17  1  0.50000000  0.59346762  0.97187103  1
  C  C18  1  0.50000000  0.65867144  0.30607536  1
  C  C19  1  0.50000000  0.65199872  0.63964224  1
  C  C20  1  0.50000000  0.65395915  0.97110088  1
  C  C21  1  0.50000000  0.71859729  0.30632428  1
  C  C22  1  0.50000000  0.71229104  0.64014678  1
  C  C23  1  0.50000000  0.71428303  0.96972626  1
  C  C24  1  0.50000000  0.28427782  0.02552885  1
  C  C25  1  0.50000000  0.28209839  0.36282408  1
  C  C26  1  0.50000000  0.28827524  0.69546835  1
  C  C27  1  0.50000000  0.34427286  0.02639552  1
  C  C28  1  0.50000000  0.34212032  0.36187153  1
  C  C29  1  0.50000000  0.34858359  0.69469590  1
  C  C30  1  0.50000000  0.40400402  0.02721802  1
  C  C31  1  0.50000000  0.40156986  0.36128212  1
  C  C32  1  0.50000000  0.40906411  0.69443046  1
  C  C33  1  0.50000000  0.46299486  0.02865027  1
  C  C34  1  0.50000000  0.45983470  0.35855668  1
  C  C35  1  0.50000000  0.46978208  0.69350023  1
  C  C36  1  0.50000000  0.53700516  0.02865027  1
  C  C37  1  0.50000000  0.54016532  0.35855667  1
  C  C38  1  0.50000000  0.53021794  0.69350023  1
  C  C39  1  0.50000000  0.59599600  0.02721803  1
  C  C40  1  0.50000000  0.59843016  0.36128212  1
  C  C41  1  0.50000000  0.59093591  0.69443046  1
  C  C42  1  0.50000000  0.65572716  0.02639552  1
  C  C43  1  0.50000000  0.65787970  0.36187153  1
  C  C44  1  0.50000000  0.65141643  0.69469590  1
  C  C45  1  0.50000000  0.71572220  0.02552885  1
  C  C46  1  0.50000000  0.71790163  0.36282408  1
  C  C47  1  0.50000000  0.71172478  0.69546835  1
  C  C48  1  0.50000000  0.25445473  0.05334144  1
  C  C49  1  0.50000000  0.25334414  0.39315925  1
  C  C50  1  0.50000000  0.25879735  0.72355818  1
  C  C51  1  0.50000000  0.31372825  0.05397082  1
  C  C52  1  0.50000000  0.31239011  0.39023014  1
  C  C53  1  0.50000000  0.31841834  0.72240719  1
  C  C54  1  0.50000000  0.37366869  0.05469083  1
  C  C55  1  0.50000000  0.37212764  0.38967287  1
  C  C56  1  0.50000000  0.37893006  0.72224545  1
  C  C57  1  0.50000000  0.43335877  0.05542530  1
  C  C58  1  0.50000000  0.43159957  0.38836261  1
  C  C59  1  0.50000000  0.43950448  0.72206939  1
  C  C60  1  0.50000000  0.50000001  0.72185116  1
  C  C61  1  0.50000000  0.56664125  0.05542530  1
  C  C62  1  0.50000000  0.56840045  0.38836262  1
  C  C63  1  0.50000000  0.56049554  0.72206939  1
  C  C64  1  0.50000000  0.62633133  0.05469083  1
  C  C65  1  0.50000000  0.62787238  0.38967287  1
  C  C66  1  0.50000000  0.62106996  0.72224545  1
  C  C67  1  0.50000000  0.68627177  0.05397082  1
  C  C68  1  0.50000000  0.68760991  0.39023014  1
  C  C69  1  0.50000000  0.68158168  0.72240719  1
  C  C70  1  0.50000000  0.74554529  0.05334144  1
  C  C71  1  0.50000000  0.74665588  0.39315925  1
  C  C72  1  0.50000000  0.74120267  0.72355818  1
  C  C73  1  0.50000000  0.25335199  0.10685729  1
  C  C74  1  0.50000000  0.25444981  0.44666556  1
  C  C75  1  0.50000000  0.25880142  0.77648464  1
  C  C76  1  0.50000000  0.31241001  0.10975972  1
  C  C77  1  0.50000000  0.31371015  0.44602862  1
  C  C78  1  0.50000000  0.31842475  0.77760119  1
  C  C79  1  0.50000000  0.37213566  0.11031505  1
  C  C80  1  0.50000000  0.37365814  0.44529426  1
  C  C81  1  0.50000000  0.37893133  0.77774080  1
  C  C82  1  0.50000000  0.43159887  0.11161511  1
  C  C83  1  0.50000000  0.43334941  0.44455155  1
  C  C84  1  0.50000000  0.43950454  0.77789947  1
  C  C85  1  0.50000000  0.50000001  0.77812402  1
  C  C86  1  0.50000000  0.56840115  0.11161511  1
  C  C87  1  0.50000000  0.56665061  0.44455155  1
  C  C88  1  0.50000000  0.56049548  0.77789947  1
  C  C89  1  0.50000000  0.62786436  0.11031505  1
  C  C90  1  0.50000000  0.62634188  0.44529426  1
  C  C91  1  0.50000000  0.62106869  0.77774080  1
  C  C92  1  0.50000000  0.68759001  0.10975972  1
  C  C93  1  0.50000000  0.68628987  0.44602862  1
  C  C94  1  0.50000000  0.68157526  0.77760119  1
  C  C95  1  0.50000000  0.74664803  0.10685729  1
  C  C96  1  0.50000000  0.74555021  0.44666556  1
  C  C97  1  0.50000000  0.74119860  0.77648464  1
  C  C98  1  0.50000000  0.28212215  0.13715112  1
  C  C99  1  0.50000000  0.28426212  0.47449423  1
  C  C100  1  0.50000000  0.28828492  0.80454815  1
  C  C101  1  0.50000000  0.34213335  0.13811889  1
  C  C102  1  0.50000000  0.34425911  0.47359291  1
  C  C103  1  0.50000000  0.34859635  0.80528892  1
  C  C104  1  0.50000000  0.40157275  0.13870696  1
  C  C105  1  0.50000000  0.40399354  0.47276126  1
  C  C106  1  0.50000000  0.40906755  0.80554401  1
  C  C107  1  0.50000000  0.45982539  0.14144595  1
  C  C108  1  0.50000000  0.46298045  0.47134244  1
  C  C109  1  0.50000000  0.46978056  0.80647002  1
  C  C110  1  0.50000000  0.54017462  0.14144594  1
  C  C111  1  0.50000000  0.53701957  0.47134244  1
  C  C112  1  0.50000000  0.53021946  0.80647002  1
  C  C113  1  0.50000000  0.59842727  0.13870696  1
  C  C114  1  0.50000000  0.59600648  0.47276126  1
  C  C115  1  0.50000000  0.59093247  0.80554401  1
  C  C116  1  0.50000000  0.65786667  0.13811889  1
  C  C117  1  0.50000000  0.65574091  0.47359292  1
  C  C118  1  0.50000000  0.65140366  0.80528892  1
  C  C119  1  0.50000000  0.71787787  0.13715112  1
  C  C120  1  0.50000000  0.71573790  0.47449423  1
  C  C121  1  0.50000000  0.71171509  0.80454815  1
  C  C122  1  0.50000000  0.28142797  0.19363928  1
  C  C123  1  0.50000000  0.28568956  0.53030071  1
  C  C124  1  0.50000000  0.28771431  0.85986866  1
  C  C125  1  0.50000000  0.34133956  0.19391589  1
  C  C126  1  0.50000000  0.34602561  0.52889373  1
  C  C127  1  0.50000000  0.34801053  0.86034922  1
  C  C128  1  0.50000000  0.40076588  0.19420433  1
  C  C129  1  0.50000000  0.40652320  0.52811660  1
  C  C130  1  0.50000000  0.40857088  0.86122803  1
  C  C131  1  0.50000000  0.45930732  0.19448192  1
  C  C132  1  0.50000000  0.46784259  0.52560272  1
  C  C133  1  0.50000000  0.46959441  0.86258144  1
  C  C134  1  0.50000000  0.54069270  0.19448193  1
  C  C135  1  0.50000000  0.53215742  0.52560272  1
  C  C136  1  0.50000000  0.53040561  0.86258144  1
  C  C137  1  0.50000000  0.59923414  0.19420433  1
  C  C138  1  0.50000000  0.59347682  0.52811660  1
  C  C139  1  0.50000000  0.59142914  0.86122803  1
  C  C140  1  0.50000000  0.65866046  0.19391588  1
  C  C141  1  0.50000000  0.65397441  0.52889373  1
  C  C142  1  0.50000000  0.65198949  0.86034922  1
  C  C143  1  0.50000000  0.71857205  0.19363928  1
  C  C144  1  0.50000000  0.71431045  0.53030072  1
  C  C145  1  0.50000000  0.71228571  0.85986866  1
  C  C146  1  0.50000000  0.25224390  0.22304186  1
  C  C147  1  0.50000000  0.25676508  0.55984037  1
  C  C148  1  0.50000000  0.25782838  0.88712243  1
  C  C149  1  0.50000000  0.31123869  0.22191456  1
  C  C150  1  0.50000000  0.31620917  0.55703659  1
  C  C151  1  0.50000000  0.31743538  0.88763037  1
  C  C152  1  0.50000000  0.37087645  0.22218984  1
  C  C153  1  0.50000000  0.37670146  0.55626605  1
  C  C154  1  0.50000000  0.37795317  0.88832818  1
  C  C155  1  0.50000000  0.43014897  0.22223805  1
  C  C156  1  0.50000000  0.43769415  0.55492903  1
  C  C157  1  0.50000000  0.43870696  0.88960437  1
  C  C158  1  0.50000000  0.50000001  0.55201495  1
  C  C159  1  0.50000000  0.50000001  0.89166585  1
  C  C160  1  0.50000000  0.56985105  0.22223805  1
  C  C161  1  0.50000000  0.56230586  0.55492903  1
  C  C162  1  0.50000000  0.56129306  0.88960437  1
  C  C163  1  0.50000000  0.62912357  0.22218984  1
  C  C164  1  0.50000000  0.62329856  0.55626605  1
  C  C165  1  0.50000000  0.62204685  0.88832818  1
  C  C166  1  0.50000000  0.68876134  0.22191456  1
  C  C167  1  0.50000000  0.68379084  0.55703659  1
  C  C168  1  0.50000000  0.68256464  0.88763037  1
  C  C169  1  0.50000000  0.74775612  0.22304186  1
  C  C170  1  0.50000000  0.74323494  0.55984037  1
  C  C171  1  0.50000000  0.74217164  0.88712242  1
  C  C172  1  0.50000000  0.25222948  0.27686878  1
  C  C173  1  0.50000000  0.25781568  0.61293447  1
  C  C174  1  0.50000000  0.25679257  0.94020212  1
  C  C175  1  0.50000000  0.31122826  0.27807420  1
  C  C176  1  0.50000000  0.31742469  0.61237599  1
  C  C177  1  0.50000000  0.31622800  0.94296838  1
  C  C178  1  0.50000000  0.37086956  0.27780575  1
  C  C179  1  0.50000000  0.37794907  0.61165494  1
  C  C180  1  0.50000000  0.37671560  0.94372043  1
  C  C181  1  0.50000000  0.43014638  0.27775499  1
  C  C182  1  0.50000000  0.43869978  0.61037519  1
  C  C183  1  0.50000000  0.43769854  0.94505328  1
  C  C184  1  0.50000000  0.50000001  0.60831914  1
  C  C185  1  0.50000000  0.50000001  0.94797161  1
  C  C186  1  0.50000000  0.56985364  0.27775499  1
  C  C187  1  0.50000000  0.56130024  0.61037519  1
  C  C188  1  0.50000000  0.56230148  0.94505328  1
  C  C189  1  0.50000000  0.62913047  0.27780575  1
  C  C190  1  0.50000000  0.62205095  0.61165494  1
  C  C191  1  0.50000000  0.62328442  0.94372043  1
  C  C192  1  0.50000000  0.68877176  0.27807420  1
  C  C193  1  0.50000000  0.68257533  0.61237599  1
  C  C194  1  0.50000000  0.68377202  0.94296838  1
  C  C195  1  0.50000000  0.74777054  0.27686878  1
  C  C196  1  0.50000000  0.74218434  0.61293447  1
  C  C197  1  0.50000000  0.74320745  0.94020212  1
  H  H198  1  0.50000000  0.23139060  0.03224276  1
  H  H199  1  0.50000000  0.22945284  0.37447752  1
  H  H200  1  0.50000000  0.23550482  0.70340264  1
  H  H201  1  0.50000000  0.76860942  0.03224276  1
  H  H202  1  0.50000000  0.77054718  0.37447752  1
  H  H203  1  0.50000000  0.76449519  0.70340264  1
  H  H204  1  0.50000000  0.22949800  0.12569719  1
  H  H205  1  0.50000000  0.23135711  0.46766425  1
  H  H206  1  0.50000000  0.23553314  0.79671910  1
  H  H207  1  0.50000000  0.77050202  0.12569719  1
  H  H208  1  0.50000000  0.76864290  0.46766425  1
  H  H209  1  0.50000000  0.76446687  0.79671910  1
  H  H210  1  0.50000000  0.22871523  0.20319492  1
  H  H211  1  0.50000000  0.23302543  0.54082977  1
  H  H212  1  0.50000000  0.23484881  0.86602181  1
  H  H213  1  0.50000000  0.77128479  0.20319492  1
  H  H214  1  0.50000000  0.76697458  0.54082977  1
  H  H215  1  0.50000000  0.76515121  0.86602182  1
  H  H216  1  0.50000000  0.22866997  0.29661766  1
  H  H217  1  0.50000000  0.23487655  0.63415047  1
  H  H218  1  0.50000000  0.23306729  0.95926687  1
  H  H219  1  0.50000000  0.77133006  0.29661766  1
  H  H220  1  0.50000000  0.76512347  0.63415046  1
  H  H221  1  0.50000000  0.76693272  0.95926687  1
  H  H222  1  0.50000000  0.48185419  0.28427121  1
  H  H223  1  0.50000000  0.51814583  0.28427121  1
  H  H224  1  0.50000000  0.48359006  0.05388193  1
  H  H225  1  0.50000000  0.48266959  0.37870615  1
  H  H226  1  0.50000000  0.51640996  0.05388194  1
  H  H227  1  0.50000000  0.51733043  0.37870615  1
  H  H228  1  0.50000000  0.48269104  0.12139292  1
  H  H229  1  0.50000000  0.48359075  0.44616747  1
  H  H230  1  0.50000000  0.51730898  0.12139292  1
  H  H231  1  0.50000000  0.51640927  0.44616746  1
  H  H232  1  0.50000000  0.48185642  0.21567351  1
  H  H233  1  0.50000000  0.51814360  0.21567352  1
