# generated using pymatgen
data_H19C99
_symmetry_space_group_name_H-M   'P 1'
_cell_length_a   10.00000000
_cell_length_b   41.10890000
_cell_length_c   25.89431360
_cell_angle_alpha   90.00000000
_cell_angle_beta   90.00000000
_cell_angle_gamma   90.00000000
_symmetry_Int_Tables_number   1
_chemical_formula_structural   H19C99
_chemical_formula_sum   'H38 C198'
_cell_volume   10644.86748494
_cell_formula_units_Z   2
loop_
 _symmetry_equiv_pos_site_id
 _symmetry_equiv_pos_as_xyz
  1  'x, y, z'
loop_
 _atom_site_type_symbol
 _atom_site_label
 _atom_site_symmetry_multiplicity
 _atom_site_fract_x
 _atom_site_fract_y
 _atom_site_fract_z
 _atom_site_occupancy
  C  C0  1  0.50000000  0.28142248  0.30616421  1
  C  C1  1  0.50000000  0.28753257  0.63986901  1
  C  C2  1  0.50000000  0.28570184  0.96986039  1
  C  C3  1  0.50000000  0.34127346  0.30611451  1
  C  C4  1  0.50000000  0.34786680  0.63936885  1
  C  C5  1  0.50000000  0.34604157  0.97127675  1
  C  C6  1  0.50000000  0.40039543  0.30588867  1
  C  C7  1  0.50000000  0.40823832  0.63889262  1
  C  C8  1  0.50000000  0.40639153  0.97197569  1
  C  C9  1  0.50000000  0.45952000  0.30394534  1
  C  C10  1  0.50000000  0.46874507  0.63916875  1
  C  C11  1  0.50000000  0.46762101  0.97287877  1
  C  C12  1  0.50000000  0.53014709  0.63880134  1
  C  C13  1  0.50000000  0.53034886  0.96568818  1
  C  C14  1  0.50000000  0.60286119  0.30397189  1
  C  C15  1  0.50000000  0.59145218  0.63923265  1
  C  C16  1  0.50000000  0.59317766  0.97329793  1
  C  C17  1  0.50000000  0.66208252  0.30619698  1
  C  C18  1  0.50000000  0.65169636  0.63915065  1
  C  C19  1  0.50000000  0.65429191  0.97173139  1
  C  C20  1  0.50000000  0.72170799  0.30667137  1
  C  C21  1  0.50000000  0.71211736  0.64019062  1
  C  C22  1  0.50000000  0.71475338  0.96916642  1
  C  C23  1  0.50000000  0.28428812  0.02584961  1
  C  C24  1  0.50000000  0.28208853  0.36280850  1
  C  C25  1  0.50000000  0.28806290  0.69547116  1
  C  C26  1  0.50000000  0.34432068  0.02658969  1
  C  C27  1  0.50000000  0.34201456  0.36167112  1
  C  C28  1  0.50000000  0.34833339  0.69465586  1
  C  C29  1  0.50000000  0.40403991  0.02723793  1
  C  C30  1  0.50000000  0.40119841  0.36118425  1
  C  C31  1  0.50000000  0.40857509  0.69438640  1
  C  C32  1  0.50000000  0.46398005  0.02925772  1
  C  C33  1  0.50000000  0.45990869  0.35897926  1
  C  C34  1  0.50000000  0.46907879  0.69473177  1
  C  C35  1  0.50000000  0.53004489  0.69454251  1
  C  C36  1  0.50000000  0.59721281  0.02937790  1
  C  C37  1  0.50000000  0.60215272  0.35873761  1
  C  C38  1  0.50000000  0.59095796  0.69461154  1
  C  C39  1  0.50000000  0.65717028  0.02674174  1
  C  C40  1  0.50000000  0.66096206  0.36139317  1
  C  C41  1  0.50000000  0.65118745  0.69443920  1
  C  C42  1  0.50000000  0.71707959  0.02488578  1
  C  C43  1  0.50000000  0.72068812  0.36331694  1
  C  C44  1  0.50000000  0.71146890  0.69561619  1
  C  C45  1  0.50000000  0.25456425  0.05355534  1
  C  C46  1  0.50000000  0.25346033  0.39300406  1
  C  C47  1  0.50000000  0.25879208  0.72348910  1
  C  C48  1  0.50000000  0.31368950  0.05421109  1
  C  C49  1  0.50000000  0.31233924  0.39011167  1
  C  C50  1  0.50000000  0.31819694  0.72243287  1
  C  C51  1  0.50000000  0.37364006  0.05468263  1
  C  C52  1  0.50000000  0.37201960  0.38945987  1
  C  C53  1  0.50000000  0.37845975  0.72214615  1
  C  C54  1  0.50000000  0.43332124  0.05577507  1
  C  C55  1  0.50000000  0.43139256  0.38865775  1
  C  C56  1  0.50000000  0.43888979  0.72219239  1
  C  C57  1  0.50000000  0.49054488  0.06267473  1
  C  C58  1  0.50000000  0.48927833  0.38492644  1
  C  C59  1  0.50000000  0.49962432  0.72223920  1
  C  C60  1  0.50000000  0.57072448  0.06334045  1
  C  C61  1  0.50000000  0.57247007  0.38444498  1
  C  C62  1  0.50000000  0.56034781  0.72217652  1
  C  C63  1  0.50000000  0.62814216  0.05566946  1
  C  C64  1  0.50000000  0.63058245  0.38863146  1
  C  C65  1  0.50000000  0.62111620  0.72214681  1
  C  C66  1  0.50000000  0.68806992  0.05390769  1
  C  C67  1  0.50000000  0.69023570  0.39032396  1
  C  C68  1  0.50000000  0.68131146  0.72241736  1
  C  C69  1  0.50000000  0.74721517  0.05206276  1
  C  C70  1  0.50000000  0.74902856  0.39458575  1
  C  C71  1  0.50000000  0.74081692  0.72356000  1
  C  C72  1  0.50000000  0.25345760  0.10700713  1
  C  C73  1  0.50000000  0.25456838  0.44645749  1
  C  C74  1  0.50000000  0.25879762  0.77652410  1
  C  C75  1  0.50000000  0.31234263  0.10989659  1
  C  C76  1  0.50000000  0.31368814  0.44580501  1
  C  C77  1  0.50000000  0.31820772  0.77755734  1
  C  C78  1  0.50000000  0.37202423  0.11054756  1
  C  C79  1  0.50000000  0.37363563  0.44532460  1
  C  C80  1  0.50000000  0.37846623  0.77783035  1
  C  C81  1  0.50000000  0.43139811  0.11134390  1
  C  C82  1  0.50000000  0.43331750  0.44422228  1
  C  C83  1  0.50000000  0.43889534  0.77780041  1
  C  C84  1  0.50000000  0.48928400  0.11506733  1
  C  C85  1  0.50000000  0.49054124  0.43731917  1
  C  C86  1  0.50000000  0.49962745  0.77771813  1
  C  C87  1  0.50000000  0.57247070  0.11555908  1
  C  C88  1  0.50000000  0.57072095  0.43666436  1
  C  C89  1  0.50000000  0.56034618  0.77779225  1
  C  C90  1  0.50000000  0.63058423  0.11137181  1
  C  C91  1  0.50000000  0.62813935  0.44433619  1
  C  C92  1  0.50000000  0.62111748  0.77784174  1
  C  C93  1  0.50000000  0.69023666  0.10967313  1
  C  C94  1  0.50000000  0.68806958  0.44608809  1
  C  C95  1  0.50000000  0.68130872  0.77759246  1
  C  C96  1  0.50000000  0.74903258  0.10540554  1
  C  C97  1  0.50000000  0.74721484  0.44792636  1
  C  C98  1  0.50000000  0.74081803  0.77643918  1
  C  C99  1  0.50000000  0.28209067  0.13719217  1
  C  C100  1  0.50000000  0.28428900  0.47416816  1
  C  C101  1  0.50000000  0.28807236  0.80454140  1
  C  C102  1  0.50000000  0.34201848  0.13833431  1
  C  C103  1  0.50000000  0.34431919  0.47342660  1
  C  C104  1  0.50000000  0.34835745  0.80529347  1
  C  C105  1  0.50000000  0.40120415  0.13882092  1
  C  C106  1  0.50000000  0.40403610  0.47276400  1
  C  C107  1  0.50000000  0.40857838  0.80556733  1
  C  C108  1  0.50000000  0.45991480  0.14102420  1
  C  C109  1  0.50000000  0.46397644  0.47073869  1
  C  C110  1  0.50000000  0.46908754  0.80525228  1
  C  C111  1  0.50000000  0.53004637  0.80540671  1
  C  C112  1  0.50000000  0.60215293  0.14126699  1
  C  C113  1  0.50000000  0.59720640  0.47062879  1
  C  C114  1  0.50000000  0.59095685  0.80537290  1
  C  C115  1  0.50000000  0.66096374  0.13860856  1
  C  C116  1  0.50000000  0.65716923  0.47324894  1
  C  C117  1  0.50000000  0.65118677  0.80556547  1
  C  C118  1  0.50000000  0.72069048  0.13667508  1
  C  C119  1  0.50000000  0.71708141  0.47510565  1
  C  C120  1  0.50000000  0.71146979  0.80438873  1
  C  C121  1  0.50000000  0.28142292  0.19383386  1
  C  C122  1  0.50000000  0.28570528  0.53016419  1
  C  C123  1  0.50000000  0.28752635  0.86015674  1
  C  C124  1  0.50000000  0.34127691  0.19388745  1
  C  C125  1  0.50000000  0.34604016  0.52873561  1
  C  C126  1  0.50000000  0.34786788  0.86060955  1
  C  C127  1  0.50000000  0.40039898  0.19411671  1
  C  C128  1  0.50000000  0.40638944  0.52801968  1
  C  C129  1  0.50000000  0.40824390  0.86110132  1
  C  C130  1  0.50000000  0.45952473  0.19606124  1
  C  C131  1  0.50000000  0.46761378  0.52710973  1
  C  C132  1  0.50000000  0.46875649  0.86081532  1
  C  C133  1  0.50000000  0.53034804  0.53429788  1
  C  C134  1  0.50000000  0.53016053  0.86118312  1
  C  C135  1  0.50000000  0.60286242  0.19603697  1
  C  C136  1  0.50000000  0.59317296  0.52670041  1
  C  C137  1  0.50000000  0.59145702  0.86077296  1
  C  C138  1  0.50000000  0.66208408  0.19380525  1
  C  C139  1  0.50000000  0.65429523  0.52826298  1
  C  C140  1  0.50000000  0.65170212  0.86084712  1
  C  C141  1  0.50000000  0.72171015  0.19332408  1
  C  C142  1  0.50000000  0.71475484  0.53082712  1
  C  C143  1  0.50000000  0.71211971  0.85981338  1
  C  C144  1  0.50000000  0.25229235  0.22317310  1
  C  C145  1  0.50000000  0.25691653  0.55951402  1
  C  C146  1  0.50000000  0.25783367  0.88740468  1
  C  C147  1  0.50000000  0.31115189  0.22199902  1
  C  C148  1  0.50000000  0.31618231  0.55689052  1
  C  C149  1  0.50000000  0.31722898  0.88791107  1
  C  C150  1  0.50000000  0.37078818  0.22200012  1
  C  C151  1  0.50000000  0.37663093  0.55596540  1
  C  C152  1  0.50000000  0.37765428  0.88831833  1
  C  C153  1  0.50000000  0.42984138  0.22261749  1
  C  C154  1  0.50000000  0.43777574  0.55510500  1
  C  C155  1  0.50000000  0.43843811  0.88884251  1
  C  C156  1  0.50000000  0.48871498  0.22367363  1
  C  C157  1  0.50000000  0.49892690  0.55650891  1
  C  C158  1  0.50000000  0.49916568  0.88807341  1
  C  C159  1  0.50000000  0.57354725  0.22378826  1
  C  C160  1  0.50000000  0.56152196  0.55647469  1
  C  C161  1  0.50000000  0.56115462  0.88809001  1
  C  C162  1  0.50000000  0.63267972  0.22251546  1
  C  C163  1  0.50000000  0.62288380  0.55499872  1
  C  C164  1  0.50000000  0.62188779  0.88881218  1
  C  C165  1  0.50000000  0.69210863  0.22187557  1
  C  C166  1  0.50000000  0.68395617  0.55697929  1
  C  C167  1  0.50000000  0.68256908  0.88780658  1
  C  C168  1  0.50000000  0.75087189  0.22316823  1
  C  C169  1  0.50000000  0.74340841  0.56064381  1
  C  C170  1  0.50000000  0.74211994  0.88647670  1
  C  C171  1  0.50000000  0.25229573  0.27682606  1
  C  C172  1  0.50000000  0.25784163  0.61261402  1
  C  C173  1  0.50000000  0.25691335  0.94051108  1
  C  C174  1  0.50000000  0.31115163  0.27800229  1
  C  C175  1  0.50000000  0.31723689  0.61212286  1
  C  C176  1  0.50000000  0.31618023  0.94313558  1
  C  C177  1  0.50000000  0.37078645  0.27800221  1
  C  C178  1  0.50000000  0.37765984  0.61167872  1
  C  C179  1  0.50000000  0.37662993  0.94403095  1
  C  C180  1  0.50000000  0.42983799  0.27738863  1
  C  C181  1  0.50000000  0.43843228  0.61114844  1
  C  C182  1  0.50000000  0.43777987  0.94488276  1
  C  C183  1  0.50000000  0.48871330  0.27634143  1
  C  C184  1  0.50000000  0.49915247  0.61189799  1
  C  C185  1  0.50000000  0.49893921  0.94345301  1
  C  C186  1  0.50000000  0.57354568  0.27622208  1
  C  C187  1  0.50000000  0.56113351  0.61194867  1
  C  C188  1  0.50000000  0.56153068  0.94353201  1
  C  C189  1  0.50000000  0.63267835  0.27749248  1
  C  C190  1  0.50000000  0.62187860  0.61120150  1
  C  C191  1  0.50000000  0.62288294  0.94500183  1
  C  C192  1  0.50000000  0.69210673  0.27812400  1
  C  C193  1  0.50000000  0.68256882  0.61218327  1
  C  C194  1  0.50000000  0.68395172  0.94301713  1
  C  C195  1  0.50000000  0.75087093  0.27683135  1
  C  C196  1  0.50000000  0.74211627  0.61352274  1
  C  C197  1  0.50000000  0.74341162  0.93935865  1
  H  H198  1  0.50000000  0.23144762  0.03269323  1
  H  H199  1  0.50000000  0.22959198  0.37432723  1
  H  H200  1  0.50000000  0.23547738  0.70340746  1
  H  H201  1  0.50000000  0.77008704  0.03054099  1
  H  H202  1  0.50000000  0.77314109  0.37663941  1
  H  H203  1  0.50000000  0.76414255  0.70355317  1
  H  H204  1  0.50000000  0.22960515  0.12573698  1
  H  H205  1  0.50000000  0.23144098  0.46728545  1
  H  H206  1  0.50000000  0.23548078  0.79659433  1
  H  H207  1  0.50000000  0.77313896  0.12337506  1
  H  H208  1  0.50000000  0.77009710  0.46941846  1
  H  H209  1  0.50000000  0.76414356  0.79645078  1
  H  H210  1  0.50000000  0.22875557  0.20343835  1
  H  H211  1  0.50000000  0.23320518  0.54048808  1
  H  H212  1  0.50000000  0.23472829  0.86669811  1
  H  H213  1  0.50000000  0.77442470  0.20343516  1
  H  H214  1  0.50000000  0.76714141  0.54169180  1
  H  H215  1  0.50000000  0.76504903  0.86528747  1
  H  H216  1  0.50000000  0.22876878  0.29658474  1
  H  H217  1  0.50000000  0.23472832  0.63329570  1
  H  H218  1  0.50000000  0.23320981  0.95956583  1
  H  H219  1  0.50000000  0.77442267  0.29656814  1
  H  H220  1  0.50000000  0.76504669  0.63469916  1
  H  H221  1  0.50000000  0.76713135  0.95836087  1
  H  H222  1  0.50000000  0.53058634  0.00595249  1
  H  H223  1  0.50000000  0.51432399  0.04798828  1
  H  H224  1  0.50000000  0.51182914  0.36374137  1
  H  H225  1  0.50000000  0.54678227  0.04905235  1
  H  H226  1  0.50000000  0.55002105  0.36292734  1
  H  H227  1  0.50000000  0.51183994  0.13624132  1
  H  H228  1  0.50000000  0.51432388  0.45199811  1
  H  H229  1  0.50000000  0.55002081  0.13706995  1
  H  H230  1  0.50000000  0.54677498  0.45093287  1
  H  H231  1  0.50000000  0.53058709  0.49403167  1
  H  H232  1  0.50000000  0.51153105  0.20309354  1
  H  H233  1  0.50000000  0.55067330  0.20332594  1
  H  H234  1  0.50000000  0.51152705  0.29692687  1
  H  H235  1  0.50000000  0.55067091  0.29668438  1
