# generated using pymatgen
data_H2C17
_symmetry_space_group_name_H-M   'P 1'
_cell_length_a   10.00000000
_cell_length_b   41.10890000
_cell_length_c   25.74445413
_cell_angle_alpha   90.00000000
_cell_angle_beta   90.00000000
_cell_angle_gamma   90.00000000
_symmetry_Int_Tables_number   1
_chemical_formula_structural   H2C17
_chemical_formula_sum   'H24 C204'
_cell_volume   10583.26190289
_cell_formula_units_Z   12
loop_
 _symmetry_equiv_pos_site_id
 _symmetry_equiv_pos_as_xyz
  1  'x, y, z'
loop_
 _atom_site_type_symbol
 _atom_site_label
 _atom_site_symmetry_multiplicity
 _atom_site_fract_x
 _atom_site_fract_y
 _atom_site_fract_z
 _atom_site_occupancy
  C  C0  1  0.50000000  0.28986548  0.30545355  1
  C  C1  1  0.50000000  0.28986169  0.63875554  1
  C  C2  1  0.50000000  0.28987354  0.97210422  1
  C  C3  1  0.50000000  0.35000302  0.30570223  1
  C  C4  1  0.50000000  0.35000317  0.63903957  1
  C  C5  1  0.50000000  0.35000466  0.97237196  1
  C  C6  1  0.50000000  0.40998182  0.30555226  1
  C  C7  1  0.50000000  0.40998208  0.63888530  1
  C  C8  1  0.50000000  0.40998155  0.97221961  1
  C  C9  1  0.50000000  0.47001573  0.30561483  1
  C  C10  1  0.50000000  0.47001553  0.63894742  1
  C  C11  1  0.50000000  0.47001597  0.97228196  1
  C  C12  1  0.50000000  0.52998428  0.30561483  1
  C  C13  1  0.50000000  0.52998449  0.63894741  1
  C  C14  1  0.50000000  0.52998405  0.97228196  1
  C  C15  1  0.50000000  0.59001820  0.30555226  1
  C  C16  1  0.50000000  0.59001794  0.63888531  1
  C  C17  1  0.50000000  0.59001847  0.97221961  1
  C  C18  1  0.50000000  0.64999700  0.30570223  1
  C  C19  1  0.50000000  0.64999685  0.63903957  1
  C  C20  1  0.50000000  0.64999536  0.97237196  1
  C  C21  1  0.50000000  0.71013454  0.30545354  1
  C  C22  1  0.50000000  0.71013832  0.63875553  1
  C  C23  1  0.50000000  0.71012648  0.97210421  1
  C  C24  1  0.50000000  0.28987354  0.02789578  1
  C  C25  1  0.50000000  0.28986169  0.36124446  1
  C  C26  1  0.50000000  0.28986548  0.69454645  1
  C  C27  1  0.50000000  0.35000466  0.02762804  1
  C  C28  1  0.50000000  0.35000317  0.36096043  1
  C  C29  1  0.50000000  0.35000302  0.69429777  1
  C  C30  1  0.50000000  0.40998155  0.02778039  1
  C  C31  1  0.50000000  0.40998208  0.36111470  1
  C  C32  1  0.50000000  0.40998182  0.69444774  1
  C  C33  1  0.50000000  0.47001597  0.02771804  1
  C  C34  1  0.50000000  0.47001553  0.36105258  1
  C  C35  1  0.50000000  0.47001573  0.69438517  1
  C  C36  1  0.50000000  0.52998405  0.02771804  1
  C  C37  1  0.50000000  0.52998449  0.36105259  1
  C  C38  1  0.50000000  0.52998428  0.69438517  1
  C  C39  1  0.50000000  0.59001847  0.02778039  1
  C  C40  1  0.50000000  0.59001794  0.36111470  1
  C  C41  1  0.50000000  0.59001820  0.69444774  1
  C  C42  1  0.50000000  0.64999536  0.02762804  1
  C  C43  1  0.50000000  0.64999685  0.36096043  1
  C  C44  1  0.50000000  0.64999700  0.69429777  1
  C  C45  1  0.50000000  0.71012648  0.02789579  1
  C  C46  1  0.50000000  0.71013832  0.36124447  1
  C  C47  1  0.50000000  0.71013454  0.69454646  1
  C  C48  1  0.50000000  0.26042707  0.05664791  1
  C  C49  1  0.50000000  0.26042571  0.39003519  1
  C  C50  1  0.50000000  0.26043811  0.72333726  1
  C  C51  1  0.50000000  0.31985867  0.05550385  1
  C  C52  1  0.50000000  0.31985645  0.38883696  1
  C  C53  1  0.50000000  0.31985298  0.72216610  1
  C  C54  1  0.50000000  0.38004260  0.05557133  1
  C  C55  1  0.50000000  0.38004258  0.38890317  1
  C  C56  1  0.50000000  0.38004240  0.72223852  1
  C  C57  1  0.50000000  0.43997633  0.05564796  1
  C  C58  1  0.50000000  0.43997618  0.38898256  1
  C  C59  1  0.50000000  0.43997639  0.72231646  1
  C  C60  1  0.50000000  0.50000001  0.05554400  1
  C  C61  1  0.50000000  0.50000001  0.38887645  1
  C  C62  1  0.50000000  0.50000001  0.72221075  1
  C  C63  1  0.50000000  0.56002369  0.05564796  1
  C  C64  1  0.50000000  0.56002384  0.38898256  1
  C  C65  1  0.50000000  0.56002363  0.72231646  1
  C  C66  1  0.50000000  0.61995742  0.05557133  1
  C  C67  1  0.50000000  0.61995743  0.38890317  1
  C  C68  1  0.50000000  0.61995762  0.72223852  1
  C  C69  1  0.50000000  0.68014135  0.05550385  1
  C  C70  1  0.50000000  0.68014357  0.38883697  1
  C  C71  1  0.50000000  0.68014703  0.72216611  1
  C  C72  1  0.50000000  0.73957294  0.05664795  1
  C  C73  1  0.50000000  0.73957430  0.39003522  1
  C  C74  1  0.50000000  0.73956191  0.72333729  1
  C  C75  1  0.50000000  0.26043627  0.10997794  1
  C  C76  1  0.50000000  0.26043922  0.44336367  1
  C  C77  1  0.50000000  0.26044945  0.77666980  1
  C  C78  1  0.50000000  0.31986499  0.11115452  1
  C  C79  1  0.50000000  0.31986773  0.44448747  1
  C  C80  1  0.50000000  0.31986172  0.77782440  1
  C  C81  1  0.50000000  0.38004719  0.11109434  1
  C  C82  1  0.50000000  0.38004724  0.44442621  1
  C  C83  1  0.50000000  0.38004702  0.77775893  1
  C  C84  1  0.50000000  0.43997858  0.11101669  1
  C  C85  1  0.50000000  0.43997872  0.44435134  1
  C  C86  1  0.50000000  0.43997881  0.77768282  1
  C  C87  1  0.50000000  0.50000001  0.11112316  1
  C  C88  1  0.50000000  0.50000001  0.44445568  1
  C  C89  1  0.50000000  0.50000001  0.77778891  1
  C  C90  1  0.50000000  0.56002143  0.11101669  1
  C  C91  1  0.50000000  0.56002130  0.44435134  1
  C  C92  1  0.50000000  0.56002121  0.77768282  1
  C  C93  1  0.50000000  0.61995283  0.11109434  1
  C  C94  1  0.50000000  0.61995278  0.44442621  1
  C  C95  1  0.50000000  0.61995300  0.77775893  1
  C  C96  1  0.50000000  0.68013503  0.11115452  1
  C  C97  1  0.50000000  0.68013229  0.44448747  1
  C  C98  1  0.50000000  0.68013830  0.77782439  1
  C  C99  1  0.50000000  0.73956374  0.10997791  1
  C  C100  1  0.50000000  0.73956079  0.44336364  1
  C  C101  1  0.50000000  0.73955056  0.77666977  1
  C  C102  1  0.50000000  0.28987712  0.13875470  1
  C  C103  1  0.50000000  0.28988988  0.47210263  1
  C  C104  1  0.50000000  0.28988072  0.80545029  1
  C  C105  1  0.50000000  0.35001063  0.13903770  1
  C  C106  1  0.50000000  0.35001232  0.47237002  1
  C  C107  1  0.50000000  0.35001054  0.80570025  1
  C  C108  1  0.50000000  0.40998624  0.13888378  1
  C  C109  1  0.50000000  0.40998571  0.47221804  1
  C  C110  1  0.50000000  0.40998598  0.80555072  1
  C  C111  1  0.50000000  0.47001718  0.13894625  1
  C  C112  1  0.50000000  0.47001761  0.47228077  1
  C  C113  1  0.50000000  0.47001738  0.80561368  1
  C  C114  1  0.50000000  0.52998283  0.13894625  1
  C  C115  1  0.50000000  0.52998240  0.47228077  1
  C  C116  1  0.50000000  0.52998264  0.80561368  1
  C  C117  1  0.50000000  0.59001378  0.13888378  1
  C  C118  1  0.50000000  0.59001431  0.47221804  1
  C  C119  1  0.50000000  0.59001403  0.80555072  1
  C  C120  1  0.50000000  0.64998938  0.13903770  1
  C  C121  1  0.50000000  0.64998770  0.47237002  1
  C  C122  1  0.50000000  0.64998948  0.80570025  1
  C  C123  1  0.50000000  0.71012289  0.13875470  1
  C  C124  1  0.50000000  0.71011013  0.47210262  1
  C  C125  1  0.50000000  0.71011930  0.80545029  1
  C  C126  1  0.50000000  0.28988072  0.19454971  1
  C  C127  1  0.50000000  0.28988988  0.52789737  1
  C  C128  1  0.50000000  0.28987712  0.86124530  1
  C  C129  1  0.50000000  0.35001054  0.19429975  1
  C  C130  1  0.50000000  0.35001232  0.52762998  1
  C  C131  1  0.50000000  0.35001063  0.86096230  1
  C  C132  1  0.50000000  0.40998598  0.19444928  1
  C  C133  1  0.50000000  0.40998571  0.52778196  1
  C  C134  1  0.50000000  0.40998624  0.86111622  1
  C  C135  1  0.50000000  0.47001738  0.19438632  1
  C  C136  1  0.50000000  0.47001761  0.52771923  1
  C  C137  1  0.50000000  0.47001718  0.86105375  1
  C  C138  1  0.50000000  0.52998264  0.19438632  1
  C  C139  1  0.50000000  0.52998240  0.52771923  1
  C  C140  1  0.50000000  0.52998283  0.86105375  1
  C  C141  1  0.50000000  0.59001403  0.19444928  1
  C  C142  1  0.50000000  0.59001431  0.52778196  1
  C  C143  1  0.50000000  0.59001378  0.86111622  1
  C  C144  1  0.50000000  0.64998948  0.19429976  1
  C  C145  1  0.50000000  0.64998770  0.52762998  1
  C  C146  1  0.50000000  0.64998938  0.86096231  1
  C  C147  1  0.50000000  0.71011930  0.19454971  1
  C  C148  1  0.50000000  0.71011013  0.52789738  1
  C  C149  1  0.50000000  0.71012289  0.86124530  1
  C  C150  1  0.50000000  0.26044945  0.22333020  1
  C  C151  1  0.50000000  0.26043922  0.55663633  1
  C  C152  1  0.50000000  0.26043627  0.89002206  1
  C  C153  1  0.50000000  0.31986172  0.22217560  1
  C  C154  1  0.50000000  0.31986773  0.55551253  1
  C  C155  1  0.50000000  0.31986499  0.88884548  1
  C  C156  1  0.50000000  0.38004702  0.22224107  1
  C  C157  1  0.50000000  0.38004724  0.55557379  1
  C  C158  1  0.50000000  0.38004719  0.88890566  1
  C  C159  1  0.50000000  0.43997881  0.22231718  1
  C  C160  1  0.50000000  0.43997872  0.55564866  1
  C  C161  1  0.50000000  0.43997858  0.88898331  1
  C  C162  1  0.50000000  0.50000001  0.22221109  1
  C  C163  1  0.50000000  0.50000001  0.55554432  1
  C  C164  1  0.50000000  0.50000001  0.88887684  1
  C  C165  1  0.50000000  0.56002121  0.22231718  1
  C  C166  1  0.50000000  0.56002130  0.55564866  1
  C  C167  1  0.50000000  0.56002143  0.88898331  1
  C  C168  1  0.50000000  0.61995300  0.22224107  1
  C  C169  1  0.50000000  0.61995278  0.55557379  1
  C  C170  1  0.50000000  0.61995283  0.88890566  1
  C  C171  1  0.50000000  0.68013830  0.22217561  1
  C  C172  1  0.50000000  0.68013229  0.55551253  1
  C  C173  1  0.50000000  0.68013503  0.88884548  1
  C  C174  1  0.50000000  0.73955056  0.22333023  1
  C  C175  1  0.50000000  0.73956079  0.55663636  1
  C  C176  1  0.50000000  0.73956374  0.89002209  1
  C  C177  1  0.50000000  0.26043811  0.27666274  1
  C  C178  1  0.50000000  0.26042571  0.60996481  1
  C  C179  1  0.50000000  0.26042707  0.94335209  1
  C  C180  1  0.50000000  0.31985298  0.27783390  1
  C  C181  1  0.50000000  0.31985645  0.61116304  1
  C  C182  1  0.50000000  0.31985867  0.94449615  1
  C  C183  1  0.50000000  0.38004240  0.27776148  1
  C  C184  1  0.50000000  0.38004258  0.61109683  1
  C  C185  1  0.50000000  0.38004260  0.94442867  1
  C  C186  1  0.50000000  0.43997639  0.27768354  1
  C  C187  1  0.50000000  0.43997618  0.61101744  1
  C  C188  1  0.50000000  0.43997633  0.94435204  1
  C  C189  1  0.50000000  0.50000001  0.27778925  1
  C  C190  1  0.50000000  0.50000001  0.61112355  1
  C  C191  1  0.50000000  0.50000001  0.94445600  1
  C  C192  1  0.50000000  0.56002363  0.27768354  1
  C  C193  1  0.50000000  0.56002384  0.61101744  1
  C  C194  1  0.50000000  0.56002369  0.94435204  1
  C  C195  1  0.50000000  0.61995762  0.27776148  1
  C  C196  1  0.50000000  0.61995744  0.61109683  1
  C  C197  1  0.50000000  0.61995742  0.94442867  1
  C  C198  1  0.50000000  0.68014704  0.27783389  1
  C  C199  1  0.50000000  0.68014357  0.61116304  1
  C  C200  1  0.50000000  0.68014135  0.94449615  1
  C  C201  1  0.50000000  0.73956191  0.27666272  1
  C  C202  1  0.50000000  0.73957430  0.60996479  1
  C  C203  1  0.50000000  0.73957294  0.94335206  1
  H  H204  1  0.50000000  0.23703689  0.03649326  1
  H  H205  1  0.50000000  0.23701093  0.36997311  1
  H  H206  1  0.50000000  0.23700385  0.70335167  1
  H  H207  1  0.50000000  0.76296313  0.03649326  1
  H  H208  1  0.50000000  0.76298909  0.36997311  1
  H  H209  1  0.50000000  0.76299617  0.70335167  1
  H  H210  1  0.50000000  0.23703471  0.13007367  1
  H  H211  1  0.50000000  0.23705693  0.46353490  1
  H  H212  1  0.50000000  0.23702319  0.79667178  1
  H  H213  1  0.50000000  0.76296531  0.13007368  1
  H  H214  1  0.50000000  0.76294309  0.46353490  1
  H  H215  1  0.50000000  0.76297683  0.79667178  1
  H  H216  1  0.50000000  0.23702319  0.20332822  1
  H  H217  1  0.50000000  0.23705693  0.53646510  1
  H  H218  1  0.50000000  0.23703471  0.86992633  1
  H  H219  1  0.50000000  0.76297683  0.20332822  1
  H  H220  1  0.50000000  0.76294309  0.53646510  1
  H  H221  1  0.50000000  0.76296531  0.86992633  1
  H  H222  1  0.50000000  0.23700385  0.29664833  1
  H  H223  1  0.50000000  0.23701093  0.63002689  1
  H  H224  1  0.50000000  0.23703689  0.96350674  1
  H  H225  1  0.50000000  0.76299617  0.29664834  1
  H  H226  1  0.50000000  0.76298909  0.63002690  1
  H  H227  1  0.50000000  0.76296313  0.96350675  1
