# generated using pymatgen
data_H6C17
_symmetry_space_group_name_H-M   'P 1'
_cell_length_a   20.00000000
_cell_length_b   40.19450000
_cell_length_c   26.80771867
_cell_angle_alpha   90.00000000
_cell_angle_beta   90.00000000
_cell_angle_gamma   90.00000000
_symmetry_Int_Tables_number   1
_chemical_formula_structural   H6C17
_chemical_formula_sum   'H36 C102'
_cell_volume   21550.45695972
_cell_formula_units_Z   6
loop_
 _symmetry_equiv_pos_site_id
 _symmetry_equiv_pos_as_xyz
  1  'x, y, z'
loop_
 _atom_site_type_symbol
 _atom_site_label
 _atom_site_symmetry_multiplicity
 _atom_site_fract_x
 _atom_site_fract_y
 _atom_site_fract_z
 _atom_site_occupancy
  C  C0  1  0.50000000  0.28302587  0.61494054  1
  C  C1  1  0.50000000  0.28318477  0.77572296  1
  C  C2  1  0.50000000  0.28328803  0.93714149  1
  C  C3  1  0.50000000  0.31272456  0.64276782  1
  C  C4  1  0.50000000  0.31302190  0.80300584  1
  C  C5  1  0.50000000  0.31325564  0.96278491  1
  C  C6  1  0.50000000  0.28318958  0.56271351  1
  C  C7  1  0.50000000  0.28319205  0.72418966  1
  C  C8  1  0.50000000  0.28302790  0.88494448  1
  C  C9  1  0.50000000  0.34366615  0.61692773  1
  C  C10  1  0.50000000  0.34393724  0.77669899  1
  C  C11  1  0.50000000  0.34364055  0.93608692  1
  C  C12  1  0.50000000  0.37490282  0.64267943  1
  C  C13  1  0.50000000  0.37489886  0.80338961  1
  C  C14  1  0.50000000  0.37429473  0.96152364  1
  C  C15  1  0.50000000  0.31317592  0.53710883  1
  C  C16  1  0.50000000  0.31300480  0.69687338  1
  C  C17  1  0.50000000  0.31272196  0.85715475  1
  C  C18  1  0.50000000  0.34355238  0.56377854  1
  C  C19  1  0.50000000  0.34393639  0.72306238  1
  C  C20  1  0.50000000  0.34367429  0.88294892  1
  C  C21  1  0.50000000  0.42131875  0.11118853  1
  C  C22  1  0.50000000  0.40543665  0.61558633  1
  C  C23  1  0.50000000  0.42622673  0.27577778  1
  C  C24  1  0.50000000  0.40546564  0.77678138  1
  C  C25  1  0.50000000  0.41499237  0.43977627  1
  C  C26  1  0.50000000  0.40514250  0.93840305  1
  C  C27  1  0.50000000  0.45148071  0.13852835  1
  C  C28  1  0.50000000  0.43626290  0.64243505  1
  C  C29  1  0.50000000  0.45355167  0.30940300  1
  C  C30  1  0.50000000  0.43623598  0.80363194  1
  C  C31  1  0.50000000  0.43823344  0.47969037  1
  C  C32  1  0.50000000  0.43606361  0.96773521  1
  C  C33  1  0.50000000  0.37418372  0.53829676  1
  C  C34  1  0.50000000  0.37489991  0.69638884  1
  C  C35  1  0.50000000  0.37489252  0.85711198  1
  C  C36  1  0.50000000  0.41512694  0.06001893  1
  C  C37  1  0.50000000  0.40502630  0.56143234  1
  C  C38  1  0.50000000  0.42627245  0.22397428  1
  C  C39  1  0.50000000  0.40546575  0.72297051  1
  C  C40  1  0.50000000  0.42121706  0.38861226  1
  C  C41  1  0.50000000  0.40548036  0.88416384  1
  C  C42  1  0.50000000  0.46684889  0.61546256  1
  C  C43  1  0.50000000  0.46691845  0.77661251  1
  C  C44  1  0.50000000  0.46738989  0.93844949  1
  C  C45  1  0.50000000  0.49753593  0.64270906  1
  C  C46  1  0.50000000  0.49760639  0.80318088  1
  C  C47  1  0.50000000  0.49824930  0.96166313  1
  C  C48  1  0.50000000  0.43837737  0.02010490  1
  C  C49  1  0.50000000  0.43594679  0.53205386  1
  C  C50  1  0.50000000  0.45363600  0.19041038  1
  C  C51  1  0.50000000  0.43621393  0.69605678  1
  C  C52  1  0.50000000  0.45138902  0.36128358  1
  C  C53  1  0.50000000  0.43630513  0.85724750  1
  C  C54  1  0.50000000  0.46731193  0.56119729  1
  C  C55  1  0.50000000  0.46691349  0.72301057  1
  C  C56  1  0.50000000  0.46691172  0.88417715  1
  C  C57  1  0.50000000  0.52858291  0.61725131  1
  C  C58  1  0.50000000  0.52844312  0.77653220  1
  C  C59  1  0.50000000  0.52892450  0.93581472  1
  C  C60  1  0.50000000  0.55932388  0.64356661  1
  C  C61  1  0.50000000  0.55933867  0.80274086  1
  C  C62  1  0.50000000  0.55914958  0.96166709  1
  C  C63  1  0.50000000  0.49816630  0.53792512  1
  C  C64  1  0.50000000  0.49758382  0.69638922  1
  C  C65  1  0.50000000  0.49758704  0.85686145  1
  C  C66  1  0.50000000  0.52886204  0.56373416  1
  C  C67  1  0.50000000  0.52842305  0.72305051  1
  C  C68  1  0.50000000  0.52863340  0.88230668  1
  C  C69  1  0.50000000  0.59004058  0.61695666  1
  C  C70  1  0.50000000  0.59027845  0.77653260  1
  C  C71  1  0.50000000  0.59000255  0.93654997  1
  C  C72  1  0.50000000  0.62082400  0.64303071  1
  C  C73  1  0.50000000  0.62090505  0.80303850  1
  C  C74  1  0.50000000  0.62038612  0.96244950  1
  C  C75  1  0.50000000  0.55908489  0.53785583  1
  C  C76  1  0.50000000  0.55930633  0.69685146  1
  C  C77  1  0.50000000  0.55937885  0.85602117  1
  C  C78  1  0.50000000  0.58992078  0.56303278  1
  C  C79  1  0.50000000  0.59024719  0.72306142  1
  C  C80  1  0.50000000  0.59009907  0.88263670  1
  C  C81  1  0.50000000  0.65150704  0.61611209  1
  C  C82  1  0.50000000  0.65185328  0.77655098  1
  C  C83  1  0.50000000  0.65111706  0.93732015  1
  C  C84  1  0.50000000  0.68264027  0.64189185  1
  C  C85  1  0.50000000  0.68260223  0.80329914  1
  C  C86  1  0.50000000  0.68174534  0.96378116  1
  C  C87  1  0.50000000  0.62031508  0.53717019  1
  C  C88  1  0.50000000  0.62086210  0.69653485  1
  C  C89  1  0.50000000  0.62086878  0.85655526  1
  C  C90  1  0.50000000  0.65102324  0.56234332  1
  C  C91  1  0.50000000  0.65184464  0.72297673  1
  C  C92  1  0.50000000  0.65154220  0.88352098  1
  C  C93  1  0.50000000  0.71213971  0.61374644  1
  C  C94  1  0.50000000  0.71234604  0.77568871  1
  C  C95  1  0.50000000  0.71166422  0.93814282  1
  C  C96  1  0.50000000  0.68161615  0.53583453  1
  C  C97  1  0.50000000  0.68262473  0.69630097  1
  C  C98  1  0.50000000  0.68264075  0.85768383  1
  C  C99  1  0.50000000  0.71157847  0.56135473  1
  C  C100  1  0.50000000  0.71234330  0.72401732  1
  C  C101  1  0.50000000  0.71215387  0.88577306  1
  H  H102  1  0.50000000  0.25889562  0.63379854  1
  H  H103  1  0.50000000  0.25923740  0.79506350  1
  H  H104  1  0.50000000  0.25962902  0.95739130  1
  H  H105  1  0.50000000  0.25951932  0.54241420  1
  H  H106  1  0.50000000  0.25927251  0.70482528  1
  H  H107  1  0.50000000  0.25891616  0.86604575  1
  H  H108  1  0.50000000  0.73629594  0.63249702  1
  H  H109  1  0.50000000  0.73631510  0.79494974  1
  H  H110  1  0.50000000  0.73526372  0.95862782  1
  H  H111  1  0.50000000  0.73510906  0.54067749  1
  H  H112  1  0.50000000  0.73639304  0.70499377  1
  H  H113  1  0.50000000  0.73634228  0.86713460  1
  H  H114  1  0.50000000  0.68099011  0.49496015  1
  H  H115  1  0.50000000  0.31369426  0.49620187  1
  H  H116  1  0.50000000  0.68120206  0.00466427  1
  H  H117  1  0.50000000  0.31372969  0.00368917  1
  H  H118  1  0.50000000  0.62025418  0.00337919  1
  H  H119  1  0.50000000  0.62026403  0.49624159  1
  H  H120  1  0.50000000  0.37241880  0.00167473  1
  H  H121  1  0.50000000  0.39845648  0.13359355  1
  H  H122  1  0.50000000  0.40134843  0.29263364  1
  H  H123  1  0.50000000  0.38835213  0.44696402  1
  H  H124  1  0.50000000  0.37230323  0.49813511  1
  H  H125  1  0.50000000  0.38847990  0.05281669  1
  H  H126  1  0.50000000  0.40142820  0.20700114  1
  H  H127  1  0.50000000  0.39840216  0.36607962  1
  H  H128  1  0.50000000  0.55887737  0.00255658  1
  H  H129  1  0.50000000  0.55882554  0.49694788  1
  H  H130  1  0.50000000  0.50027951  0.00227576  1
  H  H131  1  0.50000000  0.50013586  0.49730356  1
  H  H132  1  0.50000000  0.47500653  0.11766904  1
  H  H133  1  0.50000000  0.47865281  0.29327221  1
  H  H134  1  0.50000000  0.46375032  0.46555624  1
  H  H135  1  0.50000000  0.46390703  0.03423511  1
  H  H136  1  0.50000000  0.47874996  0.20647069  1
  H  H137  1  0.50000000  0.47494070  0.38206221  1
