# generated using pymatgen
data_H6C17
_symmetry_space_group_name_H-M   'P 1'
_cell_length_a   20.00000000
_cell_length_b   40.19450000
_cell_length_c   26.67148461
_cell_angle_alpha   90.00000000
_cell_angle_beta   90.00000000
_cell_angle_gamma   90.00000000
_symmetry_Int_Tables_number   1
_chemical_formula_structural   H6C17
_chemical_formula_sum   'H36 C102'
_cell_volume   21440.93976358
_cell_formula_units_Z   6
loop_
 _symmetry_equiv_pos_site_id
 _symmetry_equiv_pos_as_xyz
  1  'x, y, z'
loop_
 _atom_site_type_symbol
 _atom_site_label
 _atom_site_symmetry_multiplicity
 _atom_site_fract_x
 _atom_site_fract_y
 _atom_site_fract_z
 _atom_site_occupancy
  C  C0  1  0.50000000  0.28809394  0.61382736  1
  C  C1  1  0.50000000  0.28818622  0.77575555  1
  C  C2  1  0.50000000  0.28838929  0.93847736  1
  C  C3  1  0.50000000  0.31770771  0.64187335  1
  C  C4  1  0.50000000  0.31793913  0.80329715  1
  C  C5  1  0.50000000  0.31841432  0.96410045  1
  C  C6  1  0.50000000  0.28835846  0.56128836  1
  C  C7  1  0.50000000  0.28819784  0.72388210  1
  C  C8  1  0.50000000  0.28810228  0.88592002  1
  C  C9  1  0.50000000  0.34868556  0.61589263  1
  C  C10  1  0.50000000  0.34883231  0.77677664  1
  C  C11  1  0.50000000  0.34877936  0.93726788  1
  C  C12  1  0.50000000  0.37978121  0.64200815  1
  C  C13  1  0.50000000  0.37977740  0.80359405  1
  C  C14  1  0.50000000  0.37942182  0.96294968  1
  C  C15  1  0.50000000  0.31834237  0.53556094  1
  C  C16  1  0.50000000  0.31796032  0.69636386  1
  C  C17  1  0.50000000  0.31770493  0.85780269  1
  C  C18  1  0.50000000  0.34873626  0.56235310  1
  C  C19  1  0.50000000  0.34884514  0.72285319  1
  C  C20  1  0.50000000  0.34871114  0.88373041  1
  C  C21  1  0.50000000  0.41034241  0.61482742  1
  C  C22  1  0.50000000  0.41029920  0.77679818  1
  C  C23  1  0.50000000  0.41014894  0.93917368  1
  C  C24  1  0.50000000  0.42437091  0.13757440  1
  C  C25  1  0.50000000  0.44116173  0.64193226  1
  C  C26  1  0.50000000  0.42096231  0.31005346  1
  C  C27  1  0.50000000  0.44105023  0.80379822  1
  C  C28  1  0.50000000  0.43918066  0.47889576  1
  C  C29  1  0.50000000  0.44151979  0.96821601  1
  C  C30  1  0.50000000  0.37940083  0.53672746  1
  C  C31  1  0.50000000  0.37978500  0.69600521  1
  C  C32  1  0.50000000  0.37979647  0.85758962  1
  C  C33  1  0.50000000  0.41015461  0.56044752  1
  C  C34  1  0.50000000  0.41031461  0.72274527  1
  C  C35  1  0.50000000  0.41034137  0.88477687  1
  C  C36  1  0.50000000  0.45524314  0.11188949  1
  C  C37  1  0.50000000  0.47182551  0.61517388  1
  C  C38  1  0.50000000  0.44798889  0.27574993  1
  C  C39  1  0.50000000  0.47173307  0.77668660  1
  C  C40  1  0.50000000  0.46231821  0.43877881  1
  C  C41  1  0.50000000  0.47239380  0.93885609  1
  C  C42  1  0.50000000  0.50249637  0.64252498  1
  C  C43  1  0.50000000  0.50243909  0.80327396  1
  C  C44  1  0.50000000  0.50321398  0.96193638  1
  C  C45  1  0.50000000  0.43925357  0.02067635  1
  C  C46  1  0.50000000  0.44152420  0.53138133  1
  C  C47  1  0.50000000  0.42098782  0.18952151  1
  C  C48  1  0.50000000  0.44107260  0.69575868  1
  C  C49  1  0.50000000  0.42436806  0.36198408  1
  C  C50  1  0.50000000  0.44113619  0.85762733  1
  C  C51  1  0.50000000  0.46237619  0.06082067  1
  C  C52  1  0.50000000  0.47243813  0.56070935  1
  C  C53  1  0.50000000  0.44800762  0.22382383  1
  C  C54  1  0.50000000  0.47174699  0.72287358  1
  C  C55  1  0.50000000  0.45521745  0.38769652  1
  C  C56  1  0.50000000  0.47178739  0.88439132  1
  C  C57  1  0.50000000  0.53360039  0.61710291  1
  C  C58  1  0.50000000  0.53331044  0.77660673  1
  C  C59  1  0.50000000  0.53382381  0.93614240  1
  C  C60  1  0.50000000  0.56433156  0.64336119  1
  C  C61  1  0.50000000  0.56422498  0.80284463  1
  C  C62  1  0.50000000  0.56380949  0.96255718  1
  C  C63  1  0.50000000  0.50329211  0.53766829  1
  C  C64  1  0.50000000  0.50246009  0.69630013  1
  C  C65  1  0.50000000  0.50244755  0.85706122  1
  C  C66  1  0.50000000  0.53390618  0.56350110  1
  C  C67  1  0.50000000  0.53333117  0.72297806  1
  C  C68  1  0.50000000  0.53352538  0.88253637  1
  C  C69  1  0.50000000  0.59498259  0.61649775  1
  C  C70  1  0.50000000  0.59517560  0.77666743  1
  C  C71  1  0.50000000  0.59464211  0.93739424  1
  C  C72  1  0.50000000  0.62576367  0.64261268  1
  C  C73  1  0.50000000  0.62574513  0.80338338  1
  C  C74  1  0.50000000  0.62490510  0.96356079  1
  C  C75  1  0.50000000  0.56395569  0.53721383  1
  C  C76  1  0.50000000  0.56426148  0.69680323  1
  C  C77  1  0.50000000  0.56425129  0.85629728  1
  C  C78  1  0.50000000  0.59480655  0.56235517  1
  C  C79  1  0.50000000  0.59519881  0.72302633  1
  C  C80  1  0.50000000  0.59485892  0.88323509  1
  C  C81  1  0.50000000  0.65639959  0.61544564  1
  C  C82  1  0.50000000  0.65671400  0.77684723  1
  C  C83  1  0.50000000  0.65566682  0.93845058  1
  C  C84  1  0.50000000  0.68751370  0.64138070  1
  C  C85  1  0.50000000  0.68743057  0.80380257  1
  C  C86  1  0.50000000  0.68619684  0.96522515  1
  C  C87  1  0.50000000  0.62510634  0.53622978  1
  C  C88  1  0.50000000  0.62580292  0.69637491  1
  C  C89  1  0.50000000  0.62564620  0.85715282  1
  C  C90  1  0.50000000  0.65588290  0.56133150  1
  C  C91  1  0.50000000  0.65673890  0.72298476  1
  C  C92  1  0.50000000  0.65624915  0.88436907  1
  C  C93  1  0.50000000  0.71698672  0.61301804  1
  C  C94  1  0.50000000  0.71716156  0.77596840  1
  C  C95  1  0.50000000  0.71616394  0.93962422  1
  C  C96  1  0.50000000  0.68646123  0.53461104  1
  C  C97  1  0.50000000  0.68748678  0.69609906  1
  C  C98  1  0.50000000  0.68739417  0.85852031  1
  C  C99  1  0.50000000  0.71638826  0.56036018  1
  C  C100  1  0.50000000  0.71719605  0.72398949  1
  C  C101  1  0.50000000  0.71683175  0.88695885  1
  H  H102  1  0.50000000  0.26404330  0.63295511  1
  H  H103  1  0.50000000  0.26424966  0.79513706  1
  H  H104  1  0.50000000  0.26483101  0.95919146  1
  H  H105  1  0.50000000  0.26475904  0.54074184  1
  H  H106  1  0.50000000  0.26428592  0.70441990  1
  H  H107  1  0.50000000  0.26404406  0.86681753  1
  H  H108  1  0.50000000  0.74121935  0.63167401  1
  H  H109  1  0.50000000  0.74117301  0.79526130  1
  H  H110  1  0.50000000  0.73966362  0.96043569  1
  H  H111  1  0.50000000  0.73995497  0.53970736  1
  H  H112  1  0.50000000  0.74121173  0.70469470  1
  H  H113  1  0.50000000  0.74106354  0.86828932  1
  H  H114  1  0.50000000  0.68596365  0.49348730  1
  H  H115  1  0.50000000  0.31893385  0.49444514  1
  H  H116  1  0.50000000  0.68562463  0.00630676  1
  H  H117  1  0.50000000  0.31915704  0.00519608  1
  H  H118  1  0.50000000  0.62442965  0.00465938  1
  H  H119  1  0.50000000  0.62465900  0.49513670  1
  H  H120  1  0.50000000  0.37755119  0.00379469  1
  H  H121  1  0.50000000  0.37751000  0.49592647  1
  H  H122  1  0.50000000  0.40139664  0.11529986  1
  H  H123  1  0.50000000  0.39550685  0.29512332  1
  H  H124  1  0.50000000  0.41371581  0.46455476  1
  H  H125  1  0.50000000  0.41377780  0.03488386  1
  H  H126  1  0.50000000  0.39557999  0.20464123  1
  H  H127  1  0.50000000  0.40139059  0.38418995  1
  H  H128  1  0.50000000  0.56329594  0.00368807  1
  H  H129  1  0.50000000  0.56355192  0.49611145  1
  H  H130  1  0.50000000  0.47748162  0.13572574  1
  H  H131  1  0.50000000  0.47297138  0.29229796  1
  H  H132  1  0.50000000  0.48902761  0.44559657  1
  H  H133  1  0.50000000  0.50531580  0.00229247  1
  H  H134  1  0.50000000  0.48909027  0.05405977  1
  H  H135  1  0.50000000  0.47299524  0.20727952  1
  H  H136  1  0.50000000  0.47746661  0.36390178  1
  H  H137  1  0.50000000  0.50540891  0.49730095  1
