# generated using pymatgen
data_HC3
_symmetry_space_group_name_H-M   'P 1'
_cell_length_a   10.00000000
_cell_length_b   41.10890000
_cell_length_c   26.77239630
_cell_angle_alpha   90.00000000
_cell_angle_beta   90.00000000
_cell_angle_gamma   90.00000000
_symmetry_Int_Tables_number   1
_chemical_formula_structural   HC3
_chemical_formula_sum   'H38 C114'
_cell_volume   11005.83762061
_cell_formula_units_Z   38
loop_
 _symmetry_equiv_pos_site_id
 _symmetry_equiv_pos_as_xyz
  1  'x, y, z'
loop_
 _atom_site_type_symbol
 _atom_site_label
 _atom_site_symmetry_multiplicity
 _atom_site_fract_x
 _atom_site_fract_y
 _atom_site_fract_z
 _atom_site_occupancy
  C  C0  1  0.50000000  0.29140541  0.64176180  1
  C  C1  1  0.50000000  0.29213908  0.96407616  1
  C  C2  1  0.50000000  0.35177073  0.64305537  1
  C  C3  1  0.50000000  0.35213948  0.96283359  1
  C  C4  1  0.50000000  0.41186037  0.64370879  1
  C  C5  1  0.50000000  0.41201468  0.96221615  1
  C  C6  1  0.50000000  0.47225616  0.64293198  1
  C  C7  1  0.50000000  0.47158802  0.96216171  1
  C  C8  1  0.50000000  0.51396593  0.30983225  1
  C  C9  1  0.50000000  0.53219891  0.64257691  1
  C  C10  1  0.50000000  0.53242545  0.96806467  1
  C  C11  1  0.50000000  0.59214316  0.64304115  1
  C  C12  1  0.50000000  0.59286445  0.96170040  1
  C  C13  1  0.50000000  0.65260848  0.64354489  1
  C  C14  1  0.50000000  0.65224832  0.96237701  1
  C  C15  1  0.50000000  0.71301473  0.64200981  1
  C  C16  1  0.50000000  0.71226417  0.96385299  1
  C  C17  1  0.50000000  0.29141495  0.69623893  1
  C  C18  1  0.50000000  0.35172417  0.69662141  1
  C  C19  1  0.50000000  0.41189232  0.69703230  1
  C  C20  1  0.50000000  0.47222049  0.69667623  1
  C  C21  1  0.50000000  0.53004495  0.02046734  1
  C  C22  1  0.50000000  0.51636311  0.36175227  1
  C  C23  1  0.50000000  0.53221343  0.69632383  1
  C  C24  1  0.50000000  0.59218131  0.69662814  1
  C  C25  1  0.50000000  0.65254353  0.69699717  1
  C  C26  1  0.50000000  0.71295557  0.69643754  1
  C  C27  1  0.50000000  0.26235023  0.72391631  1
  C  C28  1  0.50000000  0.32145238  0.72306575  1
  C  C29  1  0.50000000  0.38166072  0.72321790  1
  C  C30  1  0.50000000  0.44211250  0.72330071  1
  C  C31  1  0.50000000  0.50221988  0.72330613  1
  C  C32  1  0.50000000  0.55258035  0.06065073  1
  C  C33  1  0.50000000  0.54608835  0.38860483  1
  C  C34  1  0.50000000  0.56218486  0.72324852  1
  C  C35  1  0.50000000  0.62242510  0.72321322  1
  C  C36  1  0.50000000  0.68287658  0.72320835  1
  C  C37  1  0.50000000  0.74204356  0.72399228  1
  C  C38  1  0.50000000  0.26233407  0.77564336  1
  C  C39  1  0.50000000  0.32144992  0.77670097  1
  C  C40  1  0.50000000  0.38165815  0.77675145  1
  C  C41  1  0.50000000  0.44210666  0.77683687  1
  C  C42  1  0.50000000  0.50221776  0.77695085  1
  C  C43  1  0.50000000  0.54604605  0.11177756  1
  C  C44  1  0.50000000  0.55266404  0.43969235  1
  C  C45  1  0.50000000  0.56220215  0.77699033  1
  C  C46  1  0.50000000  0.62244551  0.77690406  1
  C  C47  1  0.50000000  0.68289395  0.77669388  1
  C  C48  1  0.50000000  0.74207187  0.77571368  1
  C  C49  1  0.50000000  0.29137946  0.80339987  1
  C  C50  1  0.50000000  0.35170478  0.80324685  1
  C  C51  1  0.50000000  0.41187756  0.80303905  1
  C  C52  1  0.50000000  0.47221005  0.80354264  1
  C  C53  1  0.50000000  0.51636627  0.13875728  1
  C  C54  1  0.50000000  0.53008879  0.47980780  1
  C  C55  1  0.50000000  0.53222130  0.80392422  1
  C  C56  1  0.50000000  0.59220977  0.80356205  1
  C  C57  1  0.50000000  0.65259150  0.80303078  1
  C  C58  1  0.50000000  0.71300767  0.80334920  1
  C  C59  1  0.50000000  0.29239295  0.53552461  1
  C  C60  1  0.50000000  0.29132568  0.85785765  1
  C  C61  1  0.50000000  0.35234681  0.53700193  1
  C  C62  1  0.50000000  0.35171157  0.85680522  1
  C  C63  1  0.50000000  0.41215550  0.53784109  1
  C  C64  1  0.50000000  0.41181669  0.85636804  1
  C  C65  1  0.50000000  0.47163949  0.53797920  1
  C  C66  1  0.50000000  0.47224273  0.85729293  1
  C  C67  1  0.50000000  0.51405413  0.19069603  1
  C  C68  1  0.50000000  0.53241270  0.53220291  1
  C  C69  1  0.50000000  0.53222059  0.85767154  1
  C  C70  1  0.50000000  0.59277111  0.53846934  1
  C  C71  1  0.50000000  0.59219624  0.85716268  1
  C  C72  1  0.50000000  0.65205710  0.53758602  1
  C  C73  1  0.50000000  0.65268461  0.85649293  1
  C  C74  1  0.50000000  0.71197782  0.53588053  1
  C  C75  1  0.50000000  0.71310190  0.85775693  1
  C  C76  1  0.50000000  0.26308857  0.56108404  1
  C  C77  1  0.50000000  0.26244926  0.88595288  1
  C  C78  1  0.50000000  0.32228957  0.56211118  1
  C  C79  1  0.50000000  0.32170288  0.88376336  1
  C  C80  1  0.50000000  0.38202433  0.56301151  1
  C  C81  1  0.50000000  0.38177747  0.88298032  1
  C  C82  1  0.50000000  0.44168884  0.56383979  1
  C  C83  1  0.50000000  0.44187749  0.88274178  1
  C  C84  1  0.50000000  0.50178720  0.56138923  1
  C  C85  1  0.50000000  0.50221607  0.88460402  1
  C  C86  1  0.50000000  0.54077990  0.22439161  1
  C  C87  1  0.50000000  0.56263819  0.56150831  1
  C  C88  1  0.50000000  0.56224278  0.88440721  1
  C  C89  1  0.50000000  0.62274817  0.56406802  1
  C  C90  1  0.50000000  0.62269187  0.88261514  1
  C  C91  1  0.50000000  0.68217469  0.56255454  1
  C  C92  1  0.50000000  0.68268759  0.88356210  1
  C  C93  1  0.50000000  0.74129878  0.56136794  1
  C  C94  1  0.50000000  0.74197666  0.88580903  1
  C  C95  1  0.50000000  0.26257562  0.61352826  1
  C  C96  1  0.50000000  0.26288548  0.93838397  1
  C  C97  1  0.50000000  0.32181354  0.61596640  1
  C  C98  1  0.50000000  0.32210628  0.93762379  1
  C  C99  1  0.50000000  0.38186188  0.61699679  1
  C  C100  1  0.50000000  0.38188379  0.93697659  1
  C  C101  1  0.50000000  0.44192411  0.61740508  1
  C  C102  1  0.50000000  0.44160482  0.93630861  1
  C  C103  1  0.50000000  0.50220884  0.61563209  1
  C  C104  1  0.50000000  0.50178083  0.93886102  1
  C  C105  1  0.50000000  0.54072444  0.27623097  1
  C  C106  1  0.50000000  0.56220206  0.61580937  1
  C  C107  1  0.50000000  0.56268667  0.93872318  1
  C  C108  1  0.50000000  0.62261043  0.61750700  1
  C  C109  1  0.50000000  0.62285291  0.93605914  1
  C  C110  1  0.50000000  0.68255350  0.61635236  1
  C  C111  1  0.50000000  0.68237514  0.93735609  1
  C  C112  1  0.50000000  0.74184190  0.61379752  1
  C  C113  1  0.50000000  0.74153350  0.93821668  1
  H  H114  1  0.50000000  0.23889519  0.70472004  1
  H  H115  1  0.50000000  0.76548405  0.70471313  1
  H  H116  1  0.50000000  0.23885728  0.79477516  1
  H  H117  1  0.50000000  0.76556039  0.79485638  1
  H  H118  1  0.50000000  0.24005062  0.54043758  1
  H  H119  1  0.50000000  0.23887913  0.86709360  1
  H  H120  1  0.50000000  0.76427558  0.54062653  1
  H  H121  1  0.50000000  0.76559754  0.86703577  1
  H  H122  1  0.50000000  0.23897126  0.63229585  1
  H  H123  1  0.50000000  0.23979226  0.95887234  1
  H  H124  1  0.50000000  0.76550824  0.63246343  1
  H  H125  1  0.50000000  0.76458865  0.95875292  1
  H  H126  1  0.50000000  0.29260058  0.00501398  1
  H  H127  1  0.50000000  0.35226350  0.00380419  1
  H  H128  1  0.50000000  0.41221311  0.00318931  1
  H  H129  1  0.50000000  0.46956560  0.00284132  1
  H  H130  1  0.50000000  0.48929559  0.29404615  1
  H  H131  1  0.50000000  0.59474475  0.00193306  1
  H  H132  1  0.50000000  0.65181540  0.00337595  1
  H  H133  1  0.50000000  0.71181329  0.00478172  1
  H  H134  1  0.50000000  0.50501421  0.03427727  1
  H  H135  1  0.50000000  0.49336850  0.38265350  1
  H  H136  1  0.50000000  0.57868914  0.05370585  1
  H  H137  1  0.50000000  0.56818804  0.36559220  1
  H  H138  1  0.50000000  0.56815404  0.13479494  1
  H  H139  1  0.50000000  0.57877642  0.44657786  1
  H  H140  1  0.50000000  0.49334101  0.11790806  1
  H  H141  1  0.50000000  0.50510412  0.46580710  1
  H  H142  1  0.50000000  0.29302716  0.49460899  1
  H  H143  1  0.50000000  0.35259531  0.49603054  1
  H  H144  1  0.50000000  0.41240726  0.49687375  1
  H  H145  1  0.50000000  0.46963428  0.49730283  1
  H  H146  1  0.50000000  0.48939366  0.20652578  1
  H  H147  1  0.50000000  0.59464877  0.49824823  1
  H  H148  1  0.50000000  0.65154363  0.49657778  1
  H  H149  1  0.50000000  0.71137096  0.49494889  1
  H  H150  1  0.50000000  0.56516443  0.20763767  1
  H  H151  1  0.50000000  0.56504330  0.29323297  1
