# generated using pymatgen
data_HC3
_symmetry_space_group_name_H-M   'P 1'
_cell_length_a   10.00000000
_cell_length_b   41.10890000
_cell_length_c   26.67985488
_cell_angle_alpha   90.00000000
_cell_angle_beta   90.00000000
_cell_angle_gamma   90.00000000
_symmetry_Int_Tables_number   1
_chemical_formula_structural   HC3
_chemical_formula_sum   'H38 C114'
_cell_volume   10967.79486417
_cell_formula_units_Z   38
loop_
 _symmetry_equiv_pos_site_id
 _symmetry_equiv_pos_as_xyz
  1  'x, y, z'
loop_
 _atom_site_type_symbol
 _atom_site_label
 _atom_site_symmetry_multiplicity
 _atom_site_fract_x
 _atom_site_fract_y
 _atom_site_fract_z
 _atom_site_occupancy
  C  C0  1  0.50000000  0.29126830  0.64187348  1
  C  C1  1  0.50000000  0.29245606  0.96543530  1
  C  C2  1  0.50000000  0.35169594  0.64289815  1
  C  C3  1  0.50000000  0.35239835  0.96403840  1
  C  C4  1  0.50000000  0.41173975  0.64315809  1
  C  C5  1  0.50000000  0.41225890  0.96352726  1
  C  C6  1  0.50000000  0.47180206  0.64327160  1
  C  C7  1  0.50000000  0.47218242  0.96297261  1
  C  C8  1  0.50000000  0.53223956  0.64238676  1
  C  C9  1  0.50000000  0.53177928  0.96271953  1
  C  C10  1  0.50000000  0.57338454  0.30964694  1
  C  C11  1  0.50000000  0.59221854  0.64202296  1
  C  C12  1  0.50000000  0.59261667  0.96827704  1
  C  C13  1  0.50000000  0.65223564  0.64219169  1
  C  C14  1  0.50000000  0.65302757  0.96225265  1
  C  C15  1  0.50000000  0.71303171  0.64215212  1
  C  C16  1  0.50000000  0.71264625  0.96342454  1
  C  C17  1  0.50000000  0.29130221  0.69655725  1
  C  C18  1  0.50000000  0.35163414  0.69668419  1
  C  C19  1  0.50000000  0.41171197  0.69672445  1
  C  C20  1  0.50000000  0.47189854  0.69686675  1
  C  C21  1  0.50000000  0.53228406  0.69632111  1
  C  C22  1  0.50000000  0.59031099  0.02073398  1
  C  C23  1  0.50000000  0.57621475  0.36160244  1
  C  C24  1  0.50000000  0.59229377  0.69581340  1
  C  C25  1  0.50000000  0.65225251  0.69608797  1
  C  C26  1  0.50000000  0.71277090  0.69648021  1
  C  C27  1  0.50000000  0.26225815  0.72446649  1
  C  C28  1  0.50000000  0.32136144  0.72338044  1
  C  C29  1  0.50000000  0.38155839  0.72328702  1
  C  C30  1  0.50000000  0.44181411  0.72328841  1
  C  C31  1  0.50000000  0.50215897  0.72316098  1
  C  C32  1  0.50000000  0.56226715  0.72297877  1
  C  C33  1  0.50000000  0.61292237  0.06089910  1
  C  C34  1  0.50000000  0.60622129  0.38780953  1
  C  C35  1  0.50000000  0.62236825  0.72279356  1
  C  C36  1  0.50000000  0.68256292  0.72284054  1
  C  C37  1  0.50000000  0.74194841  0.72384828  1
  C  C38  1  0.50000000  0.26229838  0.77638595  1
  C  C39  1  0.50000000  0.32140179  0.77724091  1
  C  C40  1  0.50000000  0.38159346  0.77709832  1
  C  C41  1  0.50000000  0.44184344  0.77685662  1
  C  C42  1  0.50000000  0.50218212  0.77677481  1
  C  C43  1  0.50000000  0.56229357  0.77679610  1
  C  C44  1  0.50000000  0.60612257  0.11197893  1
  C  C45  1  0.50000000  0.61288136  0.43892229  1
  C  C46  1  0.50000000  0.62239874  0.77683938  1
  C  C47  1  0.50000000  0.68257738  0.77666473  1
  C  C48  1  0.50000000  0.74196327  0.77555345  1
  C  C49  1  0.50000000  0.29138829  0.80417767  1
  C  C50  1  0.50000000  0.35171113  0.80381722  1
  C  C51  1  0.50000000  0.41178314  0.80353691  1
  C  C52  1  0.50000000  0.47195641  0.80317019  1
  C  C53  1  0.50000000  0.53233967  0.80351714  1
  C  C54  1  0.50000000  0.57611120  0.13819682  1
  C  C55  1  0.50000000  0.59016769  0.47896238  1
  C  C56  1  0.50000000  0.59234840  0.80387657  1
  C  C57  1  0.50000000  0.65229180  0.80349103  1
  C  C58  1  0.50000000  0.71280280  0.80296376  1
  C  C59  1  0.50000000  0.29214610  0.53529859  1
  C  C60  1  0.50000000  0.29143878  0.85885556  1
  C  C61  1  0.50000000  0.35208349  0.53646510  1
  C  C62  1  0.50000000  0.35184891  0.85760002  1
  C  C63  1  0.50000000  0.41197092  0.53675334  1
  C  C64  1  0.50000000  0.41187993  0.85710240  1
  C  C65  1  0.50000000  0.47192356  0.53708838  1
  C  C66  1  0.50000000  0.47192065  0.85676604  1
  C  C67  1  0.50000000  0.53157322  0.53713120  1
  C  C68  1  0.50000000  0.53234881  0.85745642  1
  C  C69  1  0.50000000  0.57332492  0.19016238  1
  C  C70  1  0.50000000  0.59243176  0.53142111  1
  C  C71  1  0.50000000  0.59231832  0.85767645  1
  C  C72  1  0.50000000  0.65286563  0.53738619  1
  C  C73  1  0.50000000  0.65231968  0.85738694  1
  C  C74  1  0.50000000  0.71248155  0.53604679  1
  C  C75  1  0.50000000  0.71309785  0.85729432  1
  C  C76  1  0.50000000  0.26285465  0.56100605  1
  C  C77  1  0.50000000  0.26258574  0.88719807  1
  C  C78  1  0.50000000  0.32208813  0.56186547  1
  C  C79  1  0.50000000  0.32183863  0.88471898  1
  C  C80  1  0.50000000  0.38192146  0.56224306  1
  C  C81  1  0.50000000  0.38189928  0.88387391  1
  C  C82  1  0.50000000  0.44181829  0.56246821  1
  C  C83  1  0.50000000  0.44201570  0.88348213  1
  C  C84  1  0.50000000  0.50156820  0.56305318  1
  C  C85  1  0.50000000  0.50203371  0.88314292  1
  C  C86  1  0.50000000  0.56173998  0.56059071  1
  C  C87  1  0.50000000  0.56234024  0.88476017  1
  C  C88  1  0.50000000  0.60002232  0.22392199  1
  C  C89  1  0.50000000  0.62273249  0.56067559  1
  C  C90  1  0.50000000  0.62245493  0.88460306  1
  C  C91  1  0.50000000  0.68283417  0.56293198  1
  C  C92  1  0.50000000  0.68285716  0.88324086  1
  C  C93  1  0.50000000  0.74182063  0.56169275  1
  C  C94  1  0.50000000  0.74213161  0.88522530  1
  C  C95  1  0.50000000  0.26237148  0.61362362  1
  C  C96  1  0.50000000  0.26312778  0.93981551  1
  C  C97  1  0.50000000  0.32163757  0.61590834  1
  C  C98  1  0.50000000  0.32235785  0.93876132  1
  C  C99  1  0.50000000  0.38171150  0.61650162  1
  C  C100  1  0.50000000  0.38218548  0.93812506  1
  C  C101  1  0.50000000  0.44185044  0.61667121  1
  C  C102  1  0.50000000  0.44205520  0.93768353  1
  C  C103  1  0.50000000  0.50189139  0.61678417  1
  C  C104  1  0.50000000  0.50176839  0.93686516  1
  C  C105  1  0.50000000  0.56220953  0.61500399  1
  C  C106  1  0.50000000  0.56191682  0.93917270  1
  C  C107  1  0.50000000  0.60004627  0.27582344  1
  C  C108  1  0.50000000  0.62234480  0.61503415  1
  C  C109  1  0.50000000  0.62289199  0.93895818  1
  C  C110  1  0.50000000  0.68276714  0.61629762  1
  C  C111  1  0.50000000  0.68296775  0.93661927  1
  C  C112  1  0.50000000  0.74203985  0.61416196  1
  C  C113  1  0.50000000  0.74196304  0.93769285  1
  H  H114  1  0.50000000  0.23876961  0.70527054  1
  H  H115  1  0.50000000  0.76533530  0.70440435  1
  H  H116  1  0.50000000  0.23883840  0.79566073  1
  H  H117  1  0.50000000  0.76536989  0.79493852  1
  H  H118  1  0.50000000  0.23982895  0.54027987  1
  H  H119  1  0.50000000  0.23899086  0.86831333  1
  H  H120  1  0.50000000  0.76487697  0.54111678  1
  H  H121  1  0.50000000  0.76566353  0.86613735  1
  H  H122  1  0.50000000  0.23880172  0.63257294  1
  H  H123  1  0.50000000  0.24008457  0.96051732  1
  H  H124  1  0.50000000  0.76557597  0.63323810  1
  H  H125  1  0.50000000  0.76507469  0.95815215  1
  H  H126  1  0.50000000  0.29309762  0.00649947  1
  H  H127  1  0.50000000  0.35250039  0.00513960  1
  H  H128  1  0.50000000  0.41236553  0.00464260  1
  H  H129  1  0.50000000  0.47246510  0.00410270  1
  H  H130  1  0.50000000  0.52987216  0.00355897  1
  H  H131  1  0.50000000  0.54870591  0.29398260  1
  H  H132  1  0.50000000  0.65490809  0.00263405  1
  H  H133  1  0.50000000  0.71211037  0.00452307  1
  H  H134  1  0.50000000  0.56535886  0.03484579  1
  H  H135  1  0.50000000  0.55349283  0.38327841  1
  H  H136  1  0.50000000  0.63903019  0.05410170  1
  H  H137  1  0.50000000  0.62814069  0.36432720  1
  H  H138  1  0.50000000  0.62802743  0.13547197  1
  H  H139  1  0.50000000  0.63896022  0.44592557  1
  H  H140  1  0.50000000  0.55337583  0.11656803  1
  H  H141  1  0.50000000  0.56523917  0.46473630  1
  H  H142  1  0.50000000  0.29268550  0.49421027  1
  H  H143  1  0.50000000  0.35208421  0.49537278  1
  H  H144  1  0.50000000  0.41204101  0.49566071  1
  H  H145  1  0.50000000  0.47213488  0.49598757  1
  H  H146  1  0.50000000  0.52965609  0.49632108  1
  H  H147  1  0.50000000  0.54868343  0.20600836  1
  H  H148  1  0.50000000  0.65479183  0.49705176  1
  H  H149  1  0.50000000  0.71192268  0.49495940  1
  H  H150  1  0.50000000  0.62433048  0.20698980  1
  H  H151  1  0.50000000  0.62437149  0.29269354  1
