# generated using pymatgen
data_H6C17
_symmetry_space_group_name_H-M   'P 1'
_cell_length_a   20.00000000
_cell_length_b   40.19450000
_cell_length_c   26.78121272
_cell_angle_alpha   90.00000000
_cell_angle_beta   90.00000000
_cell_angle_gamma   90.00000000
_symmetry_Int_Tables_number   1
_chemical_formula_structural   H6C17
_chemical_formula_sum   'H36 C102'
_cell_volume   21529.14909457
_cell_formula_units_Z   6
loop_
 _symmetry_equiv_pos_site_id
 _symmetry_equiv_pos_as_xyz
  1  'x, y, z'
loop_
 _atom_site_type_symbol
 _atom_site_label
 _atom_site_symmetry_multiplicity
 _atom_site_fract_x
 _atom_site_fract_y
 _atom_site_fract_z
 _atom_site_occupancy
  C  C0  1  0.50000000  0.28278277  0.61675146  1
  C  C1  1  0.50000000  0.28396306  0.77574268  1
  C  C2  1  0.50000000  0.28220597  0.93481048  1
  C  C3  1  0.50000000  0.31337394  0.64240321  1
  C  C4  1  0.50000000  0.31377901  0.80326897  1
  C  C5  1  0.50000000  0.31191875  0.96153424  1
  C  C6  1  0.50000000  0.28205016  0.56510956  1
  C  C7  1  0.50000000  0.28396009  0.72422140  1
  C  C8  1  0.50000000  0.28289516  0.88316683  1
  C  C9  1  0.50000000  0.35975454  0.11136419  1
  C  C10  1  0.50000000  0.34389476  0.61501087  1
  C  C11  1  0.50000000  0.36504338  0.27591889  1
  C  C12  1  0.50000000  0.34436853  0.77679336  1
  C  C13  1  0.50000000  0.35336760  0.43967124  1
  C  C14  1  0.50000000  0.34338215  0.93857242  1
  C  C15  1  0.50000000  0.39001156  0.13857754  1
  C  C16  1  0.50000000  0.37498239  0.64226377  1
  C  C17  1  0.50000000  0.39245013  0.30949859  1
  C  C18  1  0.50000000  0.37508665  0.80397903  1
  C  C19  1  0.50000000  0.37661330  0.47957478  1
  C  C20  1  0.50000000  0.37439041  0.96790266  1
  C  C21  1  0.50000000  0.31175378  0.53831642  1
  C  C22  1  0.50000000  0.31374219  0.69664689  1
  C  C23  1  0.50000000  0.31347313  0.85746479  1
  C  C24  1  0.50000000  0.35342382  0.06019058  1
  C  C25  1  0.50000000  0.34323008  0.56127127  1
  C  C26  1  0.50000000  0.36494837  0.22411180  1
  C  C27  1  0.50000000  0.34438368  0.72307793  1
  C  C28  1  0.50000000  0.35974565  0.38852376  1
  C  C29  1  0.50000000  0.34400787  0.88480785  1
  C  C30  1  0.50000000  0.40538853  0.61540425  1
  C  C31  1  0.50000000  0.40562125  0.77672989  1
  C  C32  1  0.50000000  0.40587059  0.93871718  1
  C  C33  1  0.50000000  0.43619033  0.64265493  1
  C  C34  1  0.50000000  0.43627875  0.80330617  1
  C  C35  1  0.50000000  0.43675572  0.96188402  1
  C  C36  1  0.50000000  0.37671024  0.02029518  1
  C  C37  1  0.50000000  0.37424016  0.53194021  1
  C  C38  1  0.50000000  0.39232314  0.19046676  1
  C  C39  1  0.50000000  0.37506225  0.69583977  1
  C  C40  1  0.50000000  0.39004969  0.36138753  1
  C  C41  1  0.50000000  0.37506740  0.85753420  1
  C  C42  1  0.50000000  0.40574117  0.56101500  1
  C  C43  1  0.50000000  0.40563067  0.72294484  1
  C  C44  1  0.50000000  0.40549218  0.88430610  1
  C  C45  1  0.50000000  0.46715724  0.61711407  1
  C  C46  1  0.50000000  0.46707373  0.77650267  1
  C  C47  1  0.50000000  0.46752666  0.93602525  1
  C  C48  1  0.50000000  0.49795386  0.64342093  1
  C  C49  1  0.50000000  0.49796529  0.80268639  1
  C  C50  1  0.50000000  0.49778812  0.96182681  1
  C  C51  1  0.50000000  0.43661106  0.53776790  1
  C  C52  1  0.50000000  0.43626200  0.69631368  1
  C  C53  1  0.50000000  0.43627084  0.85698792  1
  C  C54  1  0.50000000  0.46740190  0.56354642  1
  C  C55  1  0.50000000  0.46705928  0.72305107  1
  C  C56  1  0.50000000  0.46725568  0.88245766  1
  C  C57  1  0.50000000  0.52857108  0.61686663  1
  C  C58  1  0.50000000  0.52878884  0.77638818  1
  C  C59  1  0.50000000  0.52864618  0.93654601  1
  C  C60  1  0.50000000  0.55939692  0.64311976  1
  C  C61  1  0.50000000  0.55953371  0.80287378  1
  C  C62  1  0.50000000  0.55908186  0.96227006  1
  C  C63  1  0.50000000  0.49764099  0.53766407  1
  C  C64  1  0.50000000  0.49793396  0.69680656  1
  C  C65  1  0.50000000  0.49803134  0.85607201  1
  C  C66  1  0.50000000  0.52851805  0.56288979  1
  C  C67  1  0.50000000  0.52877424  0.72304407  1
  C  C68  1  0.50000000  0.52866719  0.88256822  1
  C  C69  1  0.50000000  0.59005157  0.61644676  1
  C  C70  1  0.50000000  0.59039342  0.77646321  1
  C  C71  1  0.50000000  0.58987765  0.93695233  1
  C  C72  1  0.50000000  0.62080457  0.64263466  1
  C  C73  1  0.50000000  0.62096771  0.80303342  1
  C  C74  1  0.50000000  0.62034206  0.96276576  1
  C  C75  1  0.50000000  0.55893430  0.53712660  1
  C  C76  1  0.50000000  0.55949698  0.69650280  1
  C  C77  1  0.50000000  0.55947225  0.85625453  1
  C  C78  1  0.50000000  0.58973386  0.56240337  1
  C  C79  1  0.50000000  0.59037881  0.72286419  1
  C  C80  1  0.50000000  0.59014574  0.88289023  1
  C  C81  1  0.50000000  0.65146607  0.61562618  1
  C  C82  1  0.50000000  0.65190456  0.77644951  1
  C  C83  1  0.50000000  0.65105323  0.93750956  1
  C  C84  1  0.50000000  0.68257677  0.64142073  1
  C  C85  1  0.50000000  0.68260794  0.80325147  1
  C  C86  1  0.50000000  0.68169468  0.96398037  1
  C  C87  1  0.50000000  0.62017751  0.53656199  1
  C  C88  1  0.50000000  0.62093468  0.69624497  1
  C  C89  1  0.50000000  0.62087708  0.85665007  1
  C  C90  1  0.50000000  0.65089360  0.56177133  1
  C  C91  1  0.50000000  0.65189583  0.72277427  1
  C  C92  1  0.50000000  0.65155580  0.88362608  1
  C  C93  1  0.50000000  0.71205277  0.61313906  1
  C  C94  1  0.50000000  0.71229981  0.77545627  1
  C  C95  1  0.50000000  0.71163886  0.93834853  1
  C  C96  1  0.50000000  0.68146969  0.53518500  1
  C  C97  1  0.50000000  0.68259297  0.69593087  1
  C  C98  1  0.50000000  0.68263336  0.85774974  1
  C  C99  1  0.50000000  0.71146245  0.56068888  1
  C  C100  1  0.50000000  0.71229458  0.72372420  1
  C  C101  1  0.50000000  0.71215921  0.88590527  1
  H  H102  1  0.50000000  0.25931679  0.63726409  1
  H  H103  1  0.50000000  0.25995572  0.79468337  1
  H  H104  1  0.50000000  0.25839383  0.95477326  1
  H  H105  1  0.50000000  0.25821278  0.54522056  1
  H  H106  1  0.50000000  0.25989663  0.70536160  1
  H  H107  1  0.50000000  0.25939959  0.86275024  1
  H  H108  1  0.50000000  0.73620391  0.63190275  1
  H  H109  1  0.50000000  0.73629625  0.79462843  1
  H  H110  1  0.50000000  0.73520577  0.95898872  1
  H  H111  1  0.50000000  0.73498679  0.53994952  1
  H  H112  1  0.50000000  0.73629978  0.70458542  1
  H  H113  1  0.50000000  0.73629016  0.86708277  1
  H  H114  1  0.50000000  0.68081646  0.49427852  1
  H  H115  1  0.50000000  0.30990021  0.00175068  1
  H  H116  1  0.50000000  0.33699856  0.13402982  1
  H  H117  1  0.50000000  0.34020785  0.29300927  1
  H  H118  1  0.50000000  0.32674147  0.44711108  1
  H  H119  1  0.50000000  0.30974641  0.49810419  1
  H  H120  1  0.50000000  0.32679171  0.05280989  1
  H  H121  1  0.50000000  0.34003530  0.20726923  1
  H  H122  1  0.50000000  0.33696734  0.36589430  1
  H  H123  1  0.50000000  0.62027152  0.00374388  1
  H  H124  1  0.50000000  0.68119146  0.00491795  1
  H  H125  1  0.50000000  0.62007982  0.49560551  1
  H  H126  1  0.50000000  0.55892362  0.00323969  1
  H  H127  1  0.50000000  0.55875625  0.49615832  1
  H  H128  1  0.50000000  0.49759965  0.00278542  1
  H  H129  1  0.50000000  0.49742588  0.49669375  1
  H  H130  1  0.50000000  0.43878913  0.00255616  1
  H  H131  1  0.50000000  0.43866491  0.49709684  1
  H  H132  1  0.50000000  0.41356133  0.11780692  1
  H  H133  1  0.50000000  0.41768256  0.29370842  1
  H  H134  1  0.50000000  0.40213988  0.46547104  1
  H  H135  1  0.50000000  0.40223555  0.03442853  1
  H  H136  1  0.50000000  0.41752283  0.20635597  1
  H  H137  1  0.50000000  0.41357709  0.38222769  1
