# generated using pymatgen
data_H6C17
_symmetry_space_group_name_H-M   'P 1'
_cell_length_a   20.00000000
_cell_length_b   40.19450000
_cell_length_c   26.79168867
_cell_angle_alpha   90.00000000
_cell_angle_beta   90.00000000
_cell_angle_gamma   90.00000000
_symmetry_Int_Tables_number   1
_chemical_formula_structural   H6C17
_chemical_formula_sum   'H36 C102'
_cell_volume   21537.57060358
_cell_formula_units_Z   6
loop_
 _symmetry_equiv_pos_site_id
 _symmetry_equiv_pos_as_xyz
  1  'x, y, z'
loop_
 _atom_site_type_symbol
 _atom_site_label
 _atom_site_symmetry_multiplicity
 _atom_site_fract_x
 _atom_site_fract_y
 _atom_site_fract_z
 _atom_site_occupancy
  C  C0  1  0.50000000  0.28316680  0.61387800  1
  C  C1  1  0.50000000  0.28298525  0.77581972  1
  C  C2  1  0.50000000  0.28375211  0.93850635  1
  C  C3  1  0.50000000  0.31265989  0.64203082  1
  C  C4  1  0.50000000  0.31270657  0.80346773  1
  C  C5  1  0.50000000  0.31373908  0.96398418  1
  C  C6  1  0.50000000  0.28370390  0.56146959  1
  C  C7  1  0.50000000  0.28301337  0.72409848  1
  C  C8  1  0.50000000  0.28318744  0.88610910  1
  C  C9  1  0.50000000  0.34381202  0.61632501  1
  C  C10  1  0.50000000  0.34350353  0.77669728  1
  C  C11  1  0.50000000  0.34426412  0.93733426  1
  C  C12  1  0.50000000  0.37445063  0.64346886  1
  C  C13  1  0.50000000  0.37453609  0.80292231  1
  C  C14  1  0.50000000  0.37511275  0.96219309  1
  C  C15  1  0.50000000  0.31365047  0.53595865  1
  C  C16  1  0.50000000  0.31272876  0.69645764  1
  C  C17  1  0.50000000  0.31267004  0.85790785  1
  C  C18  1  0.50000000  0.34418360  0.56254463  1
  C  C19  1  0.50000000  0.34351801  0.72319631  1
  C  C20  1  0.50000000  0.34385229  0.88355249  1
  C  C21  1  0.50000000  0.40514155  0.61744586  1
  C  C22  1  0.50000000  0.40535008  0.77670880  1
  C  C23  1  0.50000000  0.40510620  0.93571654  1
  C  C24  1  0.50000000  0.43634322  0.64286875  1
  C  C25  1  0.50000000  0.43635040  0.80324505  1
  C  C26  1  0.50000000  0.43582034  0.96118273  1
  C  C27  1  0.50000000  0.37498211  0.53759714  1
  C  C28  1  0.50000000  0.37452722  0.69692002  1
  C  C29  1  0.50000000  0.37449152  0.85636882  1
  C  C30  1  0.50000000  0.40498313  0.56405339  1
  C  C31  1  0.50000000  0.40535745  0.72306228  1
  C  C32  1  0.50000000  0.40521427  0.88232426  1
  C  C33  1  0.50000000  0.48267713  0.11104929  1
  C  C34  1  0.50000000  0.46699209  0.61568258  1
  C  C35  1  0.50000000  0.48730406  0.27577103  1
  C  C36  1  0.50000000  0.46703841  0.77666266  1
  C  C37  1  0.50000000  0.47630887  0.43988360  1
  C  C38  1  0.50000000  0.46664646  0.93821597  1
  C  C39  1  0.50000000  0.51277117  0.13849653  1
  C  C40  1  0.50000000  0.49773089  0.64236500  1
  C  C41  1  0.50000000  0.51467262  0.30935330  1
  C  C42  1  0.50000000  0.49776943  0.80353726  1
  C  C43  1  0.50000000  0.49964438  0.47965325  1
  C  C44  1  0.50000000  0.49754627  0.96759226  1
  C  C45  1  0.50000000  0.43567018  0.53852801  1
  C  C46  1  0.50000000  0.43632948  0.69644907  1
  C  C47  1  0.50000000  0.43639497  0.85681671  1
  C  C48  1  0.50000000  0.47656191  0.05983245  1
  C  C49  1  0.50000000  0.46651792  0.56142842  1
  C  C50  1  0.50000000  0.48741542  0.22392329  1
  C  C51  1  0.50000000  0.46702538  0.72296696  1
  C  C52  1  0.50000000  0.48247989  0.38867526  1
  C  C53  1  0.50000000  0.46706814  0.88395840  1
  C  C54  1  0.50000000  0.52841159  0.61540789  1
  C  C55  1  0.50000000  0.52847067  0.77662358  1
  C  C56  1  0.50000000  0.52886604  0.93840562  1
  C  C57  1  0.50000000  0.55904138  0.64264234  1
  C  C58  1  0.50000000  0.55912347  0.80323778  1
  C  C59  1  0.50000000  0.55967137  0.96173472  1
  C  C60  1  0.50000000  0.49986139  0.02000725  1
  C  C61  1  0.50000000  0.49740697  0.53204240  1
  C  C62  1  0.50000000  0.51483900  0.19043775  1
  C  C63  1  0.50000000  0.49773886  0.69605276  1
  C  C64  1  0.50000000  0.51259941  0.36127476  1
  C  C65  1  0.50000000  0.49778632  0.85721717  1
  C  C66  1  0.50000000  0.52876396  0.56113742  1
  C  C67  1  0.50000000  0.52845541  0.72292363  1
  C  C68  1  0.50000000  0.52848249  0.88412782  1
  C  C69  1  0.50000000  0.59017307  0.61707198  1
  C  C70  1  0.50000000  0.59004978  0.77659927  1
  C  C71  1  0.50000000  0.59035324  0.93597307  1
  C  C72  1  0.50000000  0.62087041  0.64324805  1
  C  C73  1  0.50000000  0.62085402  0.80279517  1
  C  C74  1  0.50000000  0.62049950  0.96213186  1
  C  C75  1  0.50000000  0.55956726  0.53777808  1
  C  C76  1  0.50000000  0.55910166  0.69630533  1
  C  C77  1  0.50000000  0.55910064  0.85688259  1
  C  C78  1  0.50000000  0.59026087  0.56352962  1
  C  C79  1  0.50000000  0.59004092  0.72292816  1
  C  C80  1  0.50000000  0.59024043  0.88244270  1
  C  C81  1  0.50000000  0.65154354  0.61623507  1
  C  C82  1  0.50000000  0.65187529  0.77653220  1
  C  C83  1  0.50000000  0.65128096  0.93711531  1
  C  C84  1  0.50000000  0.68269181  0.64192106  1
  C  C85  1  0.50000000  0.68266018  0.80326991  1
  C  C86  1  0.50000000  0.68181609  0.96377344  1
  C  C87  1  0.50000000  0.62042493  0.53743671  1
  C  C88  1  0.50000000  0.62084239  0.69674155  1
  C  C89  1  0.50000000  0.62092722  0.85628734  1
  C  C90  1  0.50000000  0.65119314  0.56248999  1
  C  C91  1  0.50000000  0.65187600  0.72302675  1
  C  C92  1  0.50000000  0.65159864  0.88334773  1
  C  C93  1  0.50000000  0.71215727  0.61373948  1
  C  C94  1  0.50000000  0.71237138  0.77568874  1
  C  C95  1  0.50000000  0.71178265  0.93826390  1
  C  C96  1  0.50000000  0.68171666  0.53584392  1
  C  C97  1  0.50000000  0.68267373  0.69633984  1
  C  C98  1  0.50000000  0.68274346  0.85766996  1
  C  C99  1  0.50000000  0.71168695  0.56133041  1
  C  C100  1  0.50000000  0.71239063  0.72398821  1
  C  C101  1  0.50000000  0.71222598  0.88585256  1
  H  H102  1  0.50000000  0.25897118  0.63253736  1
  H  H103  1  0.50000000  0.25895142  0.79497718  1
  H  H104  1  0.50000000  0.26022302  0.95918996  1
  H  H105  1  0.50000000  0.26019037  0.54077848  1
  H  H106  1  0.50000000  0.25902277  0.70483086  1
  H  H107  1  0.50000000  0.25894815  0.86752953  1
  H  H108  1  0.50000000  0.73628264  0.63253135  1
  H  H109  1  0.50000000  0.73632812  0.79495073  1
  H  H110  1  0.50000000  0.73536668  0.95883807  1
  H  H111  1  0.50000000  0.73522509  0.54065306  1
  H  H112  1  0.50000000  0.73640411  0.70488972  1
  H  H113  1  0.50000000  0.73641922  0.86723728  1
  H  H114  1  0.50000000  0.68109211  0.49494641  1
  H  H115  1  0.50000000  0.31415997  0.49504714  1
  H  H116  1  0.50000000  0.68120450  0.00469133  1
  H  H117  1  0.50000000  0.31423616  0.00488753  1
  H  H118  1  0.50000000  0.62020582  0.00307852  1
  H  H119  1  0.50000000  0.62022219  0.49648906  1
  H  H120  1  0.50000000  0.37562441  0.00315581  1
  H  H121  1  0.50000000  0.37544005  0.49662041  1
  H  H122  1  0.50000000  0.56168926  0.00236307  1
  H  H123  1  0.50000000  0.56157279  0.49713016  1
  H  H124  1  0.50000000  0.43398895  0.00135291  1
  H  H125  1  0.50000000  0.45984846  0.13351853  1
  H  H126  1  0.50000000  0.46237746  0.29257413  1
  H  H127  1  0.50000000  0.44967094  0.44703209  1
  H  H128  1  0.50000000  0.43376592  0.49837116  1
  H  H129  1  0.50000000  0.44993182  0.05262515  1
  H  H130  1  0.50000000  0.46256253  0.20696797  1
  H  H131  1  0.50000000  0.45967814  0.36614350  1
  H  H132  1  0.50000000  0.53636289  0.11781656  1
  H  H133  1  0.50000000  0.53978204  0.29322238  1
  H  H134  1  0.50000000  0.52514017  0.46539614  1
  H  H135  1  0.50000000  0.52537218  0.03424426  1
  H  H136  1  0.50000000  0.53995082  0.20654088  1
  H  H137  1  0.50000000  0.53622013  0.38190297  1
