# generated using pymatgen
data_H6C17
_symmetry_space_group_name_H-M   'P 1'
_cell_length_a   20.00000000
_cell_length_b   40.19450000
_cell_length_c   26.80694249
_cell_angle_alpha   90.00000000
_cell_angle_beta   90.00000000
_cell_angle_gamma   90.00000000
_symmetry_Int_Tables_number   1
_chemical_formula_structural   H6C17
_chemical_formula_sum   'H36 C102'
_cell_volume   21549.83300033
_cell_formula_units_Z   6
loop_
 _symmetry_equiv_pos_site_id
 _symmetry_equiv_pos_as_xyz
  1  'x, y, z'
loop_
 _atom_site_type_symbol
 _atom_site_label
 _atom_site_symmetry_multiplicity
 _atom_site_fract_x
 _atom_site_fract_y
 _atom_site_fract_z
 _atom_site_occupancy
  C  C0  1  0.50000000  0.28762302  0.61564165  1
  C  C1  1  0.50000000  0.28837717  0.77571360  1
  C  C2  1  0.50000000  0.28728514  0.93585918  1
  C  C3  1  0.50000000  0.31793290  0.64197219  1
  C  C4  1  0.50000000  0.31815061  0.80339748  1
  C  C5  1  0.50000000  0.31704845  0.96243405  1
  C  C6  1  0.50000000  0.28727855  0.56390559  1
  C  C7  1  0.50000000  0.28834938  0.72411680  1
  C  C8  1  0.50000000  0.28760907  0.88409317  1
  C  C9  1  0.50000000  0.34857260  0.61483944  1
  C  C10  1  0.50000000  0.34875069  0.77676722  1
  C  C11  1  0.50000000  0.34830986  0.93867430  1
  C  C12  1  0.50000000  0.36467183  0.13859004  1
  C  C13  1  0.50000000  0.37952884  0.64238792  1
  C  C14  1  0.50000000  0.36249880  0.30939549  1
  C  C15  1  0.50000000  0.37950428  0.80385345  1
  C  C16  1  0.50000000  0.37747429  0.47967513  1
  C  C17  1  0.50000000  0.37970041  0.96771168  1
  C  C18  1  0.50000000  0.31703899  0.53731074  1
  C  C19  1  0.50000000  0.31811613  0.69637644  1
  C  C20  1  0.50000000  0.31796476  0.85781672  1
  C  C21  1  0.50000000  0.34828089  0.56112181  1
  C  C22  1  0.50000000  0.34872239  0.72299489  1
  C  C23  1  0.50000000  0.34860032  0.88495380  1
  C  C24  1  0.50000000  0.39481992  0.11108791  1
  C  C25  1  0.50000000  0.40998915  0.61581600  1
  C  C26  1  0.50000000  0.38992698  0.27584543  1
  C  C27  1  0.50000000  0.41003567  0.77669598  1
  C  C28  1  0.50000000  0.40090566  0.43992780  1
  C  C29  1  0.50000000  0.41059615  0.93827380  1
  C  C30  1  0.50000000  0.44073482  0.64303439  1
  C  C31  1  0.50000000  0.44072053  0.80317241  1
  C  C32  1  0.50000000  0.44149213  0.96100583  1
  C  C33  1  0.50000000  0.37750787  0.02011506  1
  C  C34  1  0.50000000  0.37966560  0.53208441  1
  C  C35  1  0.50000000  0.36245970  0.19048079  1
  C  C36  1  0.50000000  0.37948188  0.69590452  1
  C  C37  1  0.50000000  0.36467847  0.36128527  1
  C  C38  1  0.50000000  0.37955825  0.85737831  1
  C  C39  1  0.50000000  0.40090611  0.05986557  1
  C  C40  1  0.50000000  0.41056450  0.56148476  1
  C  C41  1  0.50000000  0.38989117  0.22403266  1
  C  C42  1  0.50000000  0.41001825  0.72305264  1
  C  C43  1  0.50000000  0.39485155  0.38872653  1
  C  C44  1  0.50000000  0.41002571  0.88392321  1
  C  C45  1  0.50000000  0.47176879  0.61769058  1
  C  C46  1  0.50000000  0.47154019  0.77648891  1
  C  C47  1  0.50000000  0.47216311  0.93532116  1
  C  C48  1  0.50000000  0.50253946  0.64382841  1
  C  C49  1  0.50000000  0.50247092  0.80258202  1
  C  C50  1  0.50000000  0.50226894  0.96138748  1
  C  C51  1  0.50000000  0.44145986  0.53869020  1
  C  C52  1  0.50000000  0.44069241  0.69652321  1
  C  C53  1  0.50000000  0.44076842  0.85666622  1
  C  C54  1  0.50000000  0.47212730  0.56434411  1
  C  C55  1  0.50000000  0.47152570  0.72316622  1
  C  C56  1  0.50000000  0.47179815  0.88198715  1
  C  C57  1  0.50000000  0.53310862  0.61717359  1
  C  C58  1  0.50000000  0.53330950  0.77642677  1
  C  C59  1  0.50000000  0.53315287  0.93632651  1
  C  C60  1  0.50000000  0.56393492  0.64332727  1
  C  C61  1  0.50000000  0.56403084  0.80292305  1
  C  C62  1  0.50000000  0.56357247  0.96201768  1
  C  C63  1  0.50000000  0.50220670  0.53820537  1
  C  C64  1  0.50000000  0.50245418  0.69706996  1
  C  C65  1  0.50000000  0.50255550  0.85582847  1
  C  C66  1  0.50000000  0.53309504  0.56326827  1
  C  C67  1  0.50000000  0.53330050  0.72319340  1
  C  C68  1  0.50000000  0.53314216  0.88243062  1
  C  C69  1  0.50000000  0.59459975  0.61670060  1
  C  C70  1  0.50000000  0.59489451  0.77655820  1
  C  C71  1  0.50000000  0.59436424  0.93677851  1
  C  C72  1  0.50000000  0.62533682  0.64291290  1
  C  C73  1  0.50000000  0.62547767  0.80307620  1
  C  C74  1  0.50000000  0.62481045  0.96258603  1
  C  C75  1  0.50000000  0.56348966  0.53752755  1
  C  C76  1  0.50000000  0.56401100  0.69665273  1
  C  C77  1  0.50000000  0.56394700  0.85622903  1
  C  C78  1  0.50000000  0.59430389  0.56272445  1
  C  C79  1  0.50000000  0.59487665  0.72301812  1
  C  C80  1  0.50000000  0.59462051  0.88280624  1
  C  C81  1  0.50000000  0.65602009  0.61599429  1
  C  C82  1  0.50000000  0.65642286  0.77654113  1
  C  C83  1  0.50000000  0.65550373  0.93730472  1
  C  C84  1  0.50000000  0.68714803  0.64177165  1
  C  C85  1  0.50000000  0.68714213  0.80325701  1
  C  C86  1  0.50000000  0.68610903  0.96376247  1
  C  C87  1  0.50000000  0.62474004  0.53689340  1
  C  C88  1  0.50000000  0.62545021  0.69646338  1
  C  C89  1  0.50000000  0.62535631  0.85659403  1
  C  C90  1  0.50000000  0.65543793  0.56217613  1
  C  C91  1  0.50000000  0.65642794  0.72295071  1
  C  C92  1  0.50000000  0.65604585  0.88348449  1
  C  C93  1  0.50000000  0.71664723  0.61356392  1
  C  C94  1  0.50000000  0.71685327  0.77556438  1
  C  C95  1  0.50000000  0.71602497  0.93814595  1
  C  C96  1  0.50000000  0.68602886  0.53568307  1
  C  C97  1  0.50000000  0.68715225  0.69619166  1
  C  C98  1  0.50000000  0.68713725  0.85764536  1
  C  C99  1  0.50000000  0.71599908  0.56118745  1
  C  C100  1  0.50000000  0.71688078  0.72390921  1
  C  C101  1  0.50000000  0.71663983  0.88579811  1
  H  H102  1  0.50000000  0.26394696  0.63562135  1
  H  H103  1  0.50000000  0.26430394  0.79461157  1
  H  H104  1  0.50000000  0.26365189  0.95623422  1
  H  H105  1  0.50000000  0.26360885  0.54364151  1
  H  H106  1  0.50000000  0.26426114  0.70531741  1
  H  H107  1  0.50000000  0.26395339  0.86405216  1
  H  H108  1  0.50000000  0.74087891  0.63214568  1
  H  H109  1  0.50000000  0.74084659  0.79474334  1
  H  H110  1  0.50000000  0.73959596  0.95864002  1
  H  H111  1  0.50000000  0.73947048  0.54040562  1
  H  H112  1  0.50000000  0.74093252  0.70488944  1
  H  H113  1  0.50000000  0.74089517  0.86732556  1
  H  H114  1  0.50000000  0.68549489  0.49480944  1
  H  H115  1  0.50000000  0.31511979  0.49667505  1
  H  H116  1  0.50000000  0.68559953  0.00464955  1
  H  H117  1  0.50000000  0.31508509  0.00306490  1
  H  H118  1  0.50000000  0.34111635  0.11780270  1
  H  H119  1  0.50000000  0.33735529  0.29337876  1
  H  H120  1  0.50000000  0.35198973  0.46544299  1
  H  H121  1  0.50000000  0.35204569  0.03440938  1
  H  H122  1  0.50000000  0.33728439  0.20647712  1
  H  H123  1  0.50000000  0.34113526  0.38210001  1
  H  H124  1  0.50000000  0.62460817  0.00353549  1
  H  H125  1  0.50000000  0.62452808  0.49593736  1
  H  H126  1  0.50000000  0.56344523  0.00292645  1
  H  H127  1  0.50000000  0.56332569  0.49661459  1
  H  H128  1  0.50000000  0.50188239  0.00228667  1
  H  H129  1  0.50000000  0.50180187  0.49728670  1
  H  H130  1  0.50000000  0.41771709  0.13341769  1
  H  H131  1  0.50000000  0.41479957  0.29285745  1
  H  H132  1  0.50000000  0.42754123  0.44748284  1
  H  H133  1  0.50000000  0.44364657  0.00113870  1
  H  H134  1  0.50000000  0.42754348  0.05240989  1
  H  H135  1  0.50000000  0.41475206  0.20698819  1
  H  H136  1  0.50000000  0.41772066  0.36631906  1
  H  H137  1  0.50000000  0.44352510  0.49855055  1
