# generated using pymatgen
data_HC3
_symmetry_space_group_name_H-M   'P 1'
_cell_length_a   10.00000000
_cell_length_b   41.10890000
_cell_length_c   26.81901894
_cell_angle_alpha   90.00000000
_cell_angle_beta   90.00000000
_cell_angle_gamma   90.00000000
_symmetry_Int_Tables_number   1
_chemical_formula_structural   HC3
_chemical_formula_sum   'H38 C114'
_cell_volume   11025.00367746
_cell_formula_units_Z   38
loop_
 _symmetry_equiv_pos_site_id
 _symmetry_equiv_pos_as_xyz
  1  'x, y, z'
loop_
 _atom_site_type_symbol
 _atom_site_label
 _atom_site_symmetry_multiplicity
 _atom_site_fract_x
 _atom_site_fract_y
 _atom_site_fract_z
 _atom_site_occupancy
  C  C0  1  0.50000000  0.28738586  0.64204209  1
  C  C1  1  0.50000000  0.28831174  0.96401676  1
  C  C2  1  0.50000000  0.34778019  0.64312923  1
  C  C3  1  0.50000000  0.34823715  0.96280983  1
  C  C4  1  0.50000000  0.40779066  0.64349233  1
  C  C5  1  0.50000000  0.40810693  0.96237995  1
  C  C6  1  0.50000000  0.46775070  0.64367308  1
  C  C7  1  0.50000000  0.46803504  0.96203227  1
  C  C8  1  0.50000000  0.52778929  0.64411834  1
  C  C9  1  0.50000000  0.52799958  0.96129120  1
  C  C10  1  0.50000000  0.58824385  0.64328037  1
  C  C11  1  0.50000000  0.58742307  0.96096532  1
  C  C12  1  0.50000000  0.66332269  0.30901020  1
  C  C13  1  0.50000000  0.64808411  0.64257898  1
  C  C14  1  0.50000000  0.64787908  0.96769508  1
  C  C15  1  0.50000000  0.70831825  0.64223792  1
  C  C16  1  0.50000000  0.70913864  0.96245201  1
  C  C17  1  0.50000000  0.28738656  0.69644203  1
  C  C18  1  0.50000000  0.34765285  0.69665385  1
  C  C19  1  0.50000000  0.40767410  0.69679919  1
  C  C20  1  0.50000000  0.46771829  0.69698627  1
  C  C21  1  0.50000000  0.52789636  0.69732921  1
  C  C22  1  0.50000000  0.58827645  0.69671748  1
  C  C23  1  0.50000000  0.65000246  0.02007768  1
  C  C24  1  0.50000000  0.66179757  0.36088693  1
  C  C25  1  0.50000000  0.64811154  0.69603066  1
  C  C26  1  0.50000000  0.70811437  0.69660065  1
  C  C27  1  0.50000000  0.25834151  0.72415310  1
  C  C28  1  0.50000000  0.31739121  0.72318159  1
  C  C29  1  0.50000000  0.37751935  0.72319208  1
  C  C30  1  0.50000000  0.43770166  0.72330849  1
  C  C31  1  0.50000000  0.49778110  0.72345677  1
  C  C32  1  0.50000000  0.55809165  0.72336099  1
  C  C33  1  0.50000000  0.62700523  0.05967882  1
  C  C34  1  0.50000000  0.63261442  0.38900118  1
  C  C35  1  0.50000000  0.61824736  0.72317869  1
  C  C36  1  0.50000000  0.67819208  0.72316014  1
  C  C37  1  0.50000000  0.73725312  0.72432675  1
  C  C38  1  0.50000000  0.25834565  0.77581565  1
  C  C39  1  0.50000000  0.31738729  0.77677157  1
  C  C40  1  0.50000000  0.37751479  0.77675016  1
  C  C41  1  0.50000000  0.43769806  0.77665797  1
  C  C42  1  0.50000000  0.49778022  0.77652399  1
  C  C43  1  0.50000000  0.55809955  0.77661788  1
  C  C44  1  0.50000000  0.63265559  0.11091524  1
  C  C45  1  0.50000000  0.62703830  0.44027127  1
  C  C46  1  0.50000000  0.61824475  0.77680410  1
  C  C47  1  0.50000000  0.67816988  0.77687102  1
  C  C48  1  0.50000000  0.73721902  0.77585589  1
  C  C49  1  0.50000000  0.28738399  0.80352726  1
  C  C50  1  0.50000000  0.34764821  0.80329725  1
  C  C51  1  0.50000000  0.40766433  0.80317125  1
  C  C52  1  0.50000000  0.46771164  0.80300280  1
  C  C53  1  0.50000000  0.52790097  0.80264123  1
  C  C54  1  0.50000000  0.58828001  0.80325162  1
  C  C55  1  0.50000000  0.66185184  0.13903209  1
  C  C56  1  0.50000000  0.65008878  0.47982446  1
  C  C57  1  0.50000000  0.64809411  0.80398596  1
  C  C58  1  0.50000000  0.70806467  0.80349444  1
  C  C59  1  0.50000000  0.28831647  0.53596402  1
  C  C60  1  0.50000000  0.28736811  0.85793772  1
  C  C61  1  0.50000000  0.34826278  0.53726085  1
  C  C62  1  0.50000000  0.34778198  0.85683928  1
  C  C63  1  0.50000000  0.40812361  0.53767936  1
  C  C64  1  0.50000000  0.40777853  0.85649444  1
  C  C65  1  0.50000000  0.46806011  0.53799616  1
  C  C66  1  0.50000000  0.46773669  0.85631991  1
  C  C67  1  0.50000000  0.52801490  0.53867444  1
  C  C68  1  0.50000000  0.52776910  0.85585425  1
  C  C69  1  0.50000000  0.58742291  0.53894736  1
  C  C70  1  0.50000000  0.58822962  0.85667224  1
  C  C71  1  0.50000000  0.66338222  0.19089138  1
  C  C72  1  0.50000000  0.64797442  0.53223879  1
  C  C73  1  0.50000000  0.64807825  0.85743201  1
  C  C74  1  0.50000000  0.70923138  0.53764806  1
  C  C75  1  0.50000000  0.70828614  0.85785653  1
  C  C76  1  0.50000000  0.25903746  0.56157224  1
  C  C77  1  0.50000000  0.25848427  0.88609947  1
  C  C78  1  0.50000000  0.31822937  0.56244054  1
  C  C79  1  0.50000000  0.31773147  0.88375794  1
  C  C80  1  0.50000000  0.37806518  0.56298037  1
  C  C81  1  0.50000000  0.37776897  0.88307369  1
  C  C82  1  0.50000000  0.43800502  0.56325672  1
  C  C83  1  0.50000000  0.43786162  0.88281617  1
  C  C84  1  0.50000000  0.49785773  0.56372329  1
  C  C85  1  0.50000000  0.49788265  0.88247226  1
  C  C86  1  0.50000000  0.55748022  0.56473462  1
  C  C87  1  0.50000000  0.55783026  0.88194983  1
  C  C88  1  0.50000000  0.63639011  0.22404523  1
  C  C89  1  0.50000000  0.61769534  0.56162225  1
  C  C90  1  0.50000000  0.61825341  0.88397156  1
  C  C91  1  0.50000000  0.67867044  0.56136722  1
  C  C92  1  0.50000000  0.67834232  0.88498692  1
  C  C93  1  0.50000000  0.73832991  0.56425059  1
  C  C94  1  0.50000000  0.73793501  0.88416481  1
  C  C95  1  0.50000000  0.25850454  0.61390198  1
  C  C96  1  0.50000000  0.25903160  0.93842389  1
  C  C97  1  0.50000000  0.31773597  0.61621226  1
  C  C98  1  0.50000000  0.31822377  0.93754717  1
  C  C99  1  0.50000000  0.37777696  0.61693881  1
  C  C100  1  0.50000000  0.37804413  0.93706746  1
  C  C101  1  0.50000000  0.43787566  0.61718235  1
  C  C102  1  0.50000000  0.43798368  0.93676687  1
  C  C103  1  0.50000000  0.49790784  0.61752021  1
  C  C104  1  0.50000000  0.49783114  0.93627315  1
  C  C105  1  0.50000000  0.55784549  0.61800469  1
  C  C106  1  0.50000000  0.55746299  0.93521189  1
  C  C107  1  0.50000000  0.63636734  0.27580890  1
  C  C108  1  0.50000000  0.61826489  0.61598182  1
  C  C109  1  0.50000000  0.61766894  0.93827612  1
  C  C110  1  0.50000000  0.67836868  0.61507677  1
  C  C111  1  0.50000000  0.67859821  0.93867551  1
  C  C112  1  0.50000000  0.73797488  0.61595207  1
  C  C113  1  0.50000000  0.73825018  0.93588413  1
  H  H114  1  0.50000000  0.23493804  0.70486359  1
  H  H115  1  0.50000000  0.76077488  0.70540475  1
  H  H116  1  0.50000000  0.23494966  0.79512080  1
  H  H117  1  0.50000000  0.76067116  0.79499203  1
  H  H118  1  0.50000000  0.23604593  0.54091787  1
  H  H119  1  0.50000000  0.23483211  0.86747248  1
  H  H120  1  0.50000000  0.76153726  0.54417381  1
  H  H121  1  0.50000000  0.76105529  0.86415369  1
  H  H122  1  0.50000000  0.23490441  0.63267568  1
  H  H123  1  0.50000000  0.23603812  0.95908652  1
  H  H124  1  0.50000000  0.76113803  0.63583901  1
  H  H125  1  0.50000000  0.76139332  0.95611595  1
  H  H126  1  0.50000000  0.28882588  0.00488945  1
  H  H127  1  0.50000000  0.34839297  0.00373232  1
  H  H128  1  0.50000000  0.40822666  0.00328819  1
  H  H129  1  0.50000000  0.46815660  0.00293435  1
  H  H130  1  0.50000000  0.52836886  0.00215717  1
  H  H131  1  0.50000000  0.58523407  0.00107718  1
  H  H132  1  0.50000000  0.68772747  0.29242086  1
  H  H133  1  0.50000000  0.71094748  0.00306432  1
  H  H134  1  0.50000000  0.67489599  0.03441422  1
  H  H135  1  0.50000000  0.68510499  0.38087173  1
  H  H136  1  0.50000000  0.60097027  0.05220511  1
  H  H137  1  0.50000000  0.61014030  0.36684071  1
  H  H138  1  0.50000000  0.61012859  0.13290155  1
  H  H139  1  0.50000000  0.60103663  0.44797818  1
  H  H140  1  0.50000000  0.68514278  0.11894935  1
  H  H141  1  0.50000000  0.67496997  0.46542735  1
  H  H142  1  0.50000000  0.28881413  0.49509655  1
  H  H143  1  0.50000000  0.34841486  0.49639290  1
  H  H144  1  0.50000000  0.40825207  0.49681035  1
  H  H145  1  0.50000000  0.46818925  0.49711529  1
  H  H146  1  0.50000000  0.52841530  0.49778503  1
  H  H147  1  0.50000000  0.58524403  0.49878903  1
  H  H148  1  0.50000000  0.68775705  0.20762276  1
  H  H149  1  0.50000000  0.71106340  0.49705844  1
  H  H150  1  0.50000000  0.61207339  0.20715819  1
  H  H151  1  0.50000000  0.61204147  0.29267376  1
