# generated using pymatgen
data_H6C17
_symmetry_space_group_name_H-M   'P 1'
_cell_length_a   20.00000000
_cell_length_b   40.19450000
_cell_length_c   26.87067702
_cell_angle_alpha   90.00000000
_cell_angle_beta   90.00000000
_cell_angle_gamma   90.00000000
_symmetry_Int_Tables_number   1
_chemical_formula_structural   H6C17
_chemical_formula_sum   'H36 C102'
_cell_volume   21601.06854711
_cell_formula_units_Z   6
loop_
 _symmetry_equiv_pos_site_id
 _symmetry_equiv_pos_as_xyz
  1  'x, y, z'
loop_
 _atom_site_type_symbol
 _atom_site_label
 _atom_site_symmetry_multiplicity
 _atom_site_fract_x
 _atom_site_fract_y
 _atom_site_fract_z
 _atom_site_occupancy
  C  C0  1  0.50000000  0.28857149  0.61348504  1
  C  C1  1  0.50000000  0.28865505  0.77570136  1
  C  C2  1  0.50000000  0.28870766  0.93739450  1
  C  C3  1  0.50000000  0.30042444  0.13862957  1
  C  C4  1  0.50000000  0.31870164  0.64212558  1
  C  C5  1  0.50000000  0.29856291  0.30910542  1
  C  C6  1  0.50000000  0.31853493  0.80370882  1
  C  C7  1  0.50000000  0.31354841  0.48048030  1
  C  C8  1  0.50000000  0.31846697  0.96697180  1
  C  C9  1  0.50000000  0.28858927  0.56240001  1
  C  C10  1  0.50000000  0.28862584  0.72422016  1
  C  C11  1  0.50000000  0.28863786  0.88635363  1
  C  C12  1  0.50000000  0.33025351  0.11085035  1
  C  C13  1  0.50000000  0.34912784  0.61575216  1
  C  C14  1  0.50000000  0.32590751  0.27581260  1
  C  C15  1  0.50000000  0.34914612  0.77662452  1
  C  C16  1  0.50000000  0.33610074  0.44022551  1
  C  C17  1  0.50000000  0.34981512  0.93851476  1
  C  C18  1  0.50000000  0.37997938  0.64304700  1
  C  C19  1  0.50000000  0.37992461  0.80314388  1
  C  C20  1  0.50000000  0.38073619  0.96129633  1
  C  C21  1  0.50000000  0.31361379  0.01923684  1
  C  C22  1  0.50000000  0.31835662  0.53277647  1
  C  C23  1  0.50000000  0.29856649  0.19063592  1
  C  C24  1  0.50000000  0.31847083  0.69609754  1
  C  C25  1  0.50000000  0.30037501  0.36109867  1
  C  C26  1  0.50000000  0.31876906  0.85766025  1
  C  C27  1  0.50000000  0.33613911  0.05950850  1
  C  C28  1  0.50000000  0.34970772  0.56124001  1
  C  C29  1  0.50000000  0.32590782  0.22396597  1
  C  C30  1  0.50000000  0.34913141  0.72309336  1
  C  C31  1  0.50000000  0.33019439  0.38888897  1
  C  C32  1  0.50000000  0.34920386  0.88399214  1
  C  C33  1  0.50000000  0.41085653  0.61764740  1
  C  C34  1  0.50000000  0.41064570  0.77645130  1
  C  C35  1  0.50000000  0.41135640  0.93530049  1
  C  C36  1  0.50000000  0.44161481  0.64387831  1
  C  C37  1  0.50000000  0.44151769  0.80252374  1
  C  C38  1  0.50000000  0.44152975  0.96105689  1
  C  C39  1  0.50000000  0.38061022  0.53836603  1
  C  C40  1  0.50000000  0.37989585  0.69651096  1
  C  C41  1  0.50000000  0.38001365  0.85659383  1
  C  C42  1  0.50000000  0.41126278  0.56426743  1
  C  C43  1  0.50000000  0.41062403  0.72312758  1
  C  C44  1  0.50000000  0.41091452  0.88192056  1
  C  C45  1  0.50000000  0.47219109  0.61738541  1
  C  C46  1  0.50000000  0.47230673  0.77628311  1
  C  C47  1  0.50000000  0.47238092  0.93584882  1
  C  C48  1  0.50000000  0.50297063  0.64358137  1
  C  C49  1  0.50000000  0.50303308  0.80264810  1
  C  C50  1  0.50000000  0.50281540  0.96135909  1
  C  C51  1  0.50000000  0.44141558  0.53843776  1
  C  C52  1  0.50000000  0.44148449  0.69701926  1
  C  C53  1  0.50000000  0.44166972  0.85566789  1
  C  C54  1  0.50000000  0.47227678  0.56364129  1
  C  C55  1  0.50000000  0.47228758  0.72322480  1
  C  C56  1  0.50000000  0.47226496  0.88210916  1
  C  C57  1  0.50000000  0.53356159  0.61720606  1
  C  C58  1  0.50000000  0.53376024  0.77632235  1
  C  C59  1  0.50000000  0.53355932  0.93603454  1
  C  C60  1  0.50000000  0.56432012  0.64346754  1
  C  C61  1  0.50000000  0.56446842  0.80271374  1
  C  C62  1  0.50000000  0.56405630  0.96155278  1
  C  C63  1  0.50000000  0.50270405  0.53812055  1
  C  C64  1  0.50000000  0.50300218  0.69681536  1
  C  C65  1  0.50000000  0.50303573  0.85588457  1
  C  C66  1  0.50000000  0.53345633  0.56341426  1
  C  C67  1  0.50000000  0.53374812  0.72310391  1
  C  C68  1  0.50000000  0.53363840  0.88222858  1
  C  C69  1  0.50000000  0.59497576  0.61695283  1
  C  C70  1  0.50000000  0.59530354  0.77636795  1
  C  C71  1  0.50000000  0.59477695  0.93623722  1
  C  C72  1  0.50000000  0.62570690  0.64305596  1
  C  C73  1  0.50000000  0.62587888  0.80280255  1
  C  C74  1  0.50000000  0.62521896  0.96196657  1
  C  C75  1  0.50000000  0.56392870  0.53785887  1
  C  C76  1  0.50000000  0.56444573  0.69666769  1
  C  C77  1  0.50000000  0.56438442  0.85592319  1
  C  C78  1  0.50000000  0.59465365  0.56312939  1
  C  C79  1  0.50000000  0.59530319  0.72295878  1
  C  C80  1  0.50000000  0.59505944  0.88239494  1
  C  C81  1  0.50000000  0.65638305  0.61617318  1
  C  C82  1  0.50000000  0.65684479  0.77634916  1
  C  C83  1  0.50000000  0.65592030  0.93679696  1
  C  C84  1  0.50000000  0.68750491  0.64187003  1
  C  C85  1  0.50000000  0.68756797  0.80304141  1
  C  C86  1  0.50000000  0.68651569  0.96322886  1
  C  C87  1  0.50000000  0.62508068  0.53739609  1
  C  C88  1  0.50000000  0.62586203  0.69645983  1
  C  C89  1  0.50000000  0.62576633  0.85622111  1
  C  C90  1  0.50000000  0.65580170  0.56249355  1
  C  C91  1  0.50000000  0.65685011  0.72286703  1
  C  C92  1  0.50000000  0.65645597  0.88308538  1
  C  C93  1  0.50000000  0.71698611  0.61368736  1
  C  C94  1  0.50000000  0.71731376  0.77541732  1
  C  C95  1  0.50000000  0.71644838  0.93768541  1
  C  C96  1  0.50000000  0.68636131  0.53600143  1
  C  C97  1  0.50000000  0.68757702  0.69617370  1
  C  C98  1  0.50000000  0.68755025  0.85733458  1
  C  C99  1  0.50000000  0.71633123  0.56144781  1
  C  C100  1  0.50000000  0.71731392  0.72382876  1
  C  C101  1  0.50000000  0.71706237  0.88544774  1
  H  H102  1  0.50000000  0.26460229  0.63276889  1
  H  H103  1  0.50000000  0.26464043  0.79484243  1
  H  H104  1  0.50000000  0.26480702  0.95710424  1
  H  H105  1  0.50000000  0.26467032  0.54266319  1
  H  H106  1  0.50000000  0.26457181  0.70523693  1
  H  H107  1  0.50000000  0.26460901  0.86729732  1
  H  H108  1  0.50000000  0.74122960  0.63217599  1
  H  H109  1  0.50000000  0.74131583  0.79460202  1
  H  H110  1  0.50000000  0.73999320  0.95821250  1
  H  H111  1  0.50000000  0.73984951  0.54085733  1
  H  H112  1  0.50000000  0.74133666  0.70469966  1
  H  H113  1  0.50000000  0.74128546  0.86690843  1
  H  H114  1  0.50000000  0.68580137  0.49523010  1
  H  H115  1  0.50000000  0.27670282  0.11834032  1
  H  H116  1  0.50000000  0.27352657  0.29280701  1
  H  H117  1  0.50000000  0.28712748  0.46979048  1
  H  H118  1  0.50000000  0.28717083  0.02979374  1
  H  H119  1  0.50000000  0.27351320  0.20690877  1
  H  H120  1  0.50000000  0.27659737  0.38119492  1
  H  H121  1  0.50000000  0.68601126  0.00403895  1
  H  H122  1  0.50000000  0.62478817  0.49660736  1
  H  H123  1  0.50000000  0.62493943  0.00279807  1
  H  H124  1  0.50000000  0.56406428  0.00236172  1
  H  H125  1  0.50000000  0.56387863  0.49706138  1
  H  H126  1  0.50000000  0.50279279  0.00214667  1
  H  H127  1  0.50000000  0.50269455  0.49733304  1
  H  H128  1  0.50000000  0.44133968  0.00186320  1
  H  H129  1  0.50000000  0.44119436  0.49761123  1
  H  H130  1  0.50000000  0.35323994  0.13290459  1
  H  H131  1  0.50000000  0.35082211  0.29257028  1
  H  H132  1  0.50000000  0.36268391  0.44814202  1
  H  H133  1  0.50000000  0.38282267  0.00150018  1
  H  H134  1  0.50000000  0.36273169  0.05168565  1
  H  H135  1  0.50000000  0.35083178  0.20723747  1
  H  H136  1  0.50000000  0.35312737  0.36668753  1
  H  H137  1  0.50000000  0.38266326  0.49813531  1
