# generated using pymatgen
data_HC3
_symmetry_space_group_name_H-M   'P 1'
_cell_length_a   10.00000000
_cell_length_b   41.10890000
_cell_length_c   26.79605204
_cell_angle_alpha   90.00000000
_cell_angle_beta   90.00000000
_cell_angle_gamma   90.00000000
_symmetry_Int_Tables_number   1
_chemical_formula_structural   HC3
_chemical_formula_sum   'H38 C114'
_cell_volume   11015.56223710
_cell_formula_units_Z   38
loop_
 _symmetry_equiv_pos_site_id
 _symmetry_equiv_pos_as_xyz
  1  'x, y, z'
loop_
 _atom_site_type_symbol
 _atom_site_label
 _atom_site_symmetry_multiplicity
 _atom_site_fract_x
 _atom_site_fract_y
 _atom_site_fract_z
 _atom_site_occupancy
  C  C0  1  0.50000000  0.28720338  0.64195888  1
  C  C1  1  0.50000000  0.28812604  0.96416898  1
  C  C2  1  0.50000000  0.34755773  0.64325274  1
  C  C3  1  0.50000000  0.34811265  0.96263211  1
  C  C4  1  0.50000000  0.40764493  0.64404714  1
  C  C5  1  0.50000000  0.40791819  0.96169043  1
  C  C6  1  0.50000000  0.46810701  0.64319159  1
  C  C7  1  0.50000000  0.46725425  0.96119782  1
  C  C8  1  0.50000000  0.54443601  0.30963090  1
  C  C9  1  0.50000000  0.52807352  0.64254940  1
  C  C10  1  0.50000000  0.52765079  0.96779589  1
  C  C11  1  0.50000000  0.58800644  0.64282024  1
  C  C12  1  0.50000000  0.58855098  0.96218956  1
  C  C13  1  0.50000000  0.64842254  0.64335029  1
  C  C14  1  0.50000000  0.64808285  0.96239505  1
  C  C15  1  0.50000000  0.70883126  0.64204686  1
  C  C16  1  0.50000000  0.70807500  0.96388158  1
  C  C17  1  0.50000000  0.28719967  0.69640564  1
  C  C18  1  0.50000000  0.34752247  0.69674110  1
  C  C19  1  0.50000000  0.40771966  0.69721316  1
  C  C20  1  0.50000000  0.46813734  0.69675638  1
  C  C21  1  0.50000000  0.52972430  0.02023951  1
  C  C22  1  0.50000000  0.54237119  0.36153578  1
  C  C23  1  0.50000000  0.52814211  0.69625280  1
  C  C24  1  0.50000000  0.58808833  0.69647721  1
  C  C25  1  0.50000000  0.64837780  0.69685089  1
  C  C26  1  0.50000000  0.70877189  0.69646015  1
  C  C27  1  0.50000000  0.25811557  0.72406524  1
  C  C28  1  0.50000000  0.31725532  0.72318447  1
  C  C29  1  0.50000000  0.37747859  0.72329038  1
  C  C30  1  0.50000000  0.43798869  0.72329648  1
  C  C31  1  0.50000000  0.50687580  0.06006318  1
  C  C32  1  0.50000000  0.51290118  0.38891737  1
  C  C33  1  0.50000000  0.49816423  0.72326247  1
  C  C34  1  0.50000000  0.55811216  0.72314636  1
  C  C35  1  0.50000000  0.61829549  0.72310391  1
  C  C36  1  0.50000000  0.67868017  0.72318234  1
  C  C37  1  0.50000000  0.73783244  0.72406243  1
  C  C38  1  0.50000000  0.25812214  0.77578527  1
  C  C39  1  0.50000000  0.31726140  0.77676200  1
  C  C40  1  0.50000000  0.37748643  0.77668757  1
  C  C41  1  0.50000000  0.43799735  0.77670678  1
  C  C42  1  0.50000000  0.51291231  0.11129642  1
  C  C43  1  0.50000000  0.50679741  0.44009629  1
  C  C44  1  0.50000000  0.49817984  0.77680967  1
  C  C45  1  0.50000000  0.55812875  0.77688467  1
  C  C46  1  0.50000000  0.61830471  0.77683776  1
  C  C47  1  0.50000000  0.67868880  0.77671454  1
  C  C48  1  0.50000000  0.73783590  0.77576082  1
  C  C49  1  0.50000000  0.28719236  0.80349097  1
  C  C50  1  0.50000000  0.34753379  0.80322401  1
  C  C51  1  0.50000000  0.40771852  0.80278758  1
  C  C52  1  0.50000000  0.46813977  0.80329615  1
  C  C53  1  0.50000000  0.54231225  0.13887609  1
  C  C54  1  0.50000000  0.52967371  0.47987084  1
  C  C55  1  0.50000000  0.52817472  0.80380750  1
  C  C56  1  0.50000000  0.58812314  0.80350772  1
  C  C57  1  0.50000000  0.64839220  0.80307560  1
  C  C58  1  0.50000000  0.70879170  0.80339326  1
  C  C59  1  0.50000000  0.28823599  0.53568310  1
  C  C60  1  0.50000000  0.28714732  0.85794631  1
  C  C61  1  0.50000000  0.34817686  0.53732710  1
  C  C62  1  0.50000000  0.34754359  0.85671613  1
  C  C63  1  0.50000000  0.40794362  0.53839148  1
  C  C64  1  0.50000000  0.40764241  0.85596925  1
  C  C65  1  0.50000000  0.46724469  0.53883043  1
  C  C66  1  0.50000000  0.46813850  0.85693600  1
  C  C67  1  0.50000000  0.54435327  0.19078249  1
  C  C68  1  0.50000000  0.52761038  0.53226787  1
  C  C69  1  0.50000000  0.52813067  0.85753115  1
  C  C70  1  0.50000000  0.58844409  0.53791597  1
  C  C71  1  0.50000000  0.58805552  0.85717665  1
  C  C72  1  0.50000000  0.64796543  0.53752106  1
  C  C73  1  0.50000000  0.64847279  0.85657997  1
  C  C74  1  0.50000000  0.70790451  0.53590300  1
  C  C75  1  0.50000000  0.70890083  0.85779858  1
  C  C76  1  0.50000000  0.25897801  0.56127004  1
  C  C77  1  0.50000000  0.25831395  0.88615511  1
  C  C78  1  0.50000000  0.31810384  0.56231865  1
  C  C79  1  0.50000000  0.31756340  0.88374760  1
  C  C80  1  0.50000000  0.37779714  0.56339402  1
  C  C81  1  0.50000000  0.37763778  0.88271296  1
  C  C82  1  0.50000000  0.43734918  0.56457074  1
  C  C83  1  0.50000000  0.43768353  0.88216815  1
  C  C84  1  0.50000000  0.51757825  0.22434903  1
  C  C85  1  0.50000000  0.49744701  0.56169484  1
  C  C86  1  0.50000000  0.49808703  0.88420928  1
  C  C87  1  0.50000000  0.55833205  0.56132440  1
  C  C88  1  0.50000000  0.55810220  0.88445622  1
  C  C89  1  0.50000000  0.61847937  0.56364140  1
  C  C90  1  0.50000000  0.61846893  0.88280381  1
  C  C91  1  0.50000000  0.67806203  0.56255071  1
  C  C92  1  0.50000000  0.67847986  0.88357511  1
  C  C93  1  0.50000000  0.73718545  0.56148976  1
  C  C94  1  0.50000000  0.73778283  0.88584790  1
  C  C95  1  0.50000000  0.25841738  0.61365889  1
  C  C96  1  0.50000000  0.25885179  0.93856503  1
  C  C97  1  0.50000000  0.31760705  0.61616836  1
  C  C98  1  0.50000000  0.31803211  0.93760144  1
  C  C99  1  0.50000000  0.37765420  0.61730083  1
  C  C100  1  0.50000000  0.37777052  0.93662996  1
  C  C101  1  0.50000000  0.43768738  0.61789548  1
  C  C102  1  0.50000000  0.43734218  0.93550173  1
  C  C103  1  0.50000000  0.51762779  0.27616131  1
  C  C104  1  0.50000000  0.49802888  0.61588630  1
  C  C105  1  0.50000000  0.49747508  0.93831260  1
  C  C106  1  0.50000000  0.55803819  0.61559844  1
  C  C107  1  0.50000000  0.55841579  0.93876534  1
  C  C108  1  0.50000000  0.61841057  0.61718825  1
  C  C109  1  0.50000000  0.61856463  0.93635681  1
  C  C110  1  0.50000000  0.67840979  0.61630742  1
  C  C111  1  0.50000000  0.67818661  0.93733086  1
  C  C112  1  0.50000000  0.73765979  0.61388824  1
  C  C113  1  0.50000000  0.73736250  0.93824970  1
  H  H114  1  0.50000000  0.23467147  0.70478586  1
  H  H115  1  0.50000000  0.76123472  0.70472631  1
  H  H116  1  0.50000000  0.23468108  0.79504324  1
  H  H117  1  0.50000000  0.76123965  0.79509571  1
  H  H118  1  0.50000000  0.23598201  0.54058731  1
  H  H119  1  0.50000000  0.23471165  0.86733650  1
  H  H120  1  0.50000000  0.76026171  0.54099227  1
  H  H121  1  0.50000000  0.76133968  0.86690349  1
  H  H122  1  0.50000000  0.23476145  0.63226229  1
  H  H123  1  0.50000000  0.23586228  0.95929535  1
  H  H124  1  0.50000000  0.76127509  0.63263627  1
  H  H125  1  0.50000000  0.76041932  0.95881410  1
  H  H126  1  0.50000000  0.28859779  0.00509066  1
  H  H127  1  0.50000000  0.34847165  0.00356642  1
  H  H128  1  0.50000000  0.40835513  0.00262755  1
  H  H129  1  0.50000000  0.46521315  0.00137403  1
  H  H130  1  0.50000000  0.56904738  0.29375826  1
  H  H131  1  0.50000000  0.59050122  0.00284982  1
  H  H132  1  0.50000000  0.64784131  0.00332913  1
  H  H133  1  0.50000000  0.70755999  0.00480538  1
  H  H134  1  0.50000000  0.55464107  0.03452534  1
  H  H135  1  0.50000000  0.56547769  0.38208831  1
  H  H136  1  0.50000000  0.48082191  0.05267707  1
  H  H137  1  0.50000000  0.49063132  0.36632207  1
  H  H138  1  0.50000000  0.49059666  0.13378221  1
  H  H139  1  0.50000000  0.48072208  0.44729248  1
  H  H140  1  0.50000000  0.56544156  0.11839020  1
  H  H141  1  0.50000000  0.55459599  0.46560465  1
  H  H142  1  0.50000000  0.28868225  0.49477133  1
  H  H143  1  0.50000000  0.34848823  0.49639296  1
  H  H144  1  0.50000000  0.40845895  0.49748237  1
  H  H145  1  0.50000000  0.46524179  0.49866383  1
  H  H146  1  0.50000000  0.56899963  0.20661560  1
  H  H147  1  0.50000000  0.59036211  0.49727096  1
  H  H148  1  0.50000000  0.64778958  0.49658477  1
  H  H149  1  0.50000000  0.70731718  0.49497784  1
  H  H150  1  0.50000000  0.49322598  0.20746744  1
  H  H151  1  0.50000000  0.49334703  0.29328887  1
