# generated using pymatgen
data_HC3
_symmetry_space_group_name_H-M   'P 1'
_cell_length_a   10.00000000
_cell_length_b   41.10890000
_cell_length_c   26.28541451
_cell_angle_alpha   90.00000000
_cell_angle_beta   90.00000000
_cell_angle_gamma   90.00000000
_symmetry_Int_Tables_number   1
_chemical_formula_structural   HC3
_chemical_formula_sum   'H38 C114'
_cell_volume   10805.64476688
_cell_formula_units_Z   38
loop_
 _symmetry_equiv_pos_site_id
 _symmetry_equiv_pos_as_xyz
  1  'x, y, z'
loop_
 _atom_site_type_symbol
 _atom_site_label
 _atom_site_symmetry_multiplicity
 _atom_site_fract_x
 _atom_site_fract_y
 _atom_site_fract_z
 _atom_site_occupancy
  C  C0  1  0.50000000  0.28772774  0.30878188  1
  C  C1  1  0.50000000  0.29030109  0.64051043  1
  C  C2  1  0.50000000  0.28933364  0.96978471  1
  C  C3  1  0.50000000  0.35024515  0.64096590  1
  C  C4  1  0.50000000  0.35020706  0.96641128  1
  C  C5  1  0.50000000  0.41038546  0.64130878  1
  C  C6  1  0.50000000  0.41011557  0.96654149  1
  C  C7  1  0.50000000  0.47043890  0.64112485  1
  C  C8  1  0.50000000  0.47025743  0.96675456  1
  C  C9  1  0.50000000  0.53049864  0.64114842  1
  C  C10  1  0.50000000  0.53034041  0.96674014  1
  C  C11  1  0.50000000  0.59053411  0.64121539  1
  C  C12  1  0.50000000  0.59028169  0.96672695  1
  C  C13  1  0.50000000  0.65063228  0.64094368  1
  C  C14  1  0.50000000  0.65008503  0.96708105  1
  C  C15  1  0.50000000  0.71108815  0.63977575  1
  C  C16  1  0.50000000  0.71004105  0.96848039  1
  C  C17  1  0.50000000  0.28805971  0.02298501  1
  C  C18  1  0.50000000  0.28732454  0.36154687  1
  C  C19  1  0.50000000  0.29017170  0.69527953  1
  C  C20  1  0.50000000  0.35025761  0.69551554  1
  C  C21  1  0.50000000  0.41034680  0.69577217  1
  C  C22  1  0.50000000  0.47044938  0.69571300  1
  C  C23  1  0.50000000  0.53055648  0.69569830  1
  C  C24  1  0.50000000  0.59064075  0.69566744  1
  C  C25  1  0.50000000  0.65073250  0.69558918  1
  C  C26  1  0.50000000  0.71108420  0.69533538  1
  C  C27  1  0.50000000  0.25992138  0.05363556  1
  C  C28  1  0.50000000  0.25956413  0.39349201  1
  C  C29  1  0.50000000  0.26085972  0.72380632  1
  C  C30  1  0.50000000  0.32020326  0.72269382  1
  C  C31  1  0.50000000  0.38030045  0.72269258  1
  C  C32  1  0.50000000  0.44045441  0.72277304  1
  C  C33  1  0.50000000  0.50047985  0.72275090  1
  C  C34  1  0.50000000  0.56058115  0.72270332  1
  C  C35  1  0.50000000  0.62081729  0.72264398  1
  C  C36  1  0.50000000  0.68103840  0.72264084  1
  C  C37  1  0.50000000  0.74014624  0.72362632  1
  C  C38  1  0.50000000  0.25953921  0.10657807  1
  C  C39  1  0.50000000  0.25983368  0.44646325  1
  C  C40  1  0.50000000  0.26084381  0.77620863  1
  C  C41  1  0.50000000  0.32019130  0.77731466  1
  C  C42  1  0.50000000  0.38029760  0.77726980  1
  C  C43  1  0.50000000  0.44045583  0.77716036  1
  C  C44  1  0.50000000  0.50048042  0.77717196  1
  C  C45  1  0.50000000  0.56058071  0.77723463  1
  C  C46  1  0.50000000  0.62081610  0.77730878  1
  C  C47  1  0.50000000  0.68103557  0.77733772  1
  C  C48  1  0.50000000  0.74014218  0.77637355  1
  C  C49  1  0.50000000  0.28722920  0.13863870  1
  C  C50  1  0.50000000  0.28794933  0.47713838  1
  C  C51  1  0.50000000  0.29016105  0.80473962  1
  C  C52  1  0.50000000  0.35025092  0.80446093  1
  C  C53  1  0.50000000  0.41034717  0.80416524  1
  C  C54  1  0.50000000  0.47045229  0.80421199  1
  C  C55  1  0.50000000  0.53055538  0.80422942  1
  C  C56  1  0.50000000  0.59063722  0.80428025  1
  C  C57  1  0.50000000  0.65072830  0.80438022  1
  C  C58  1  0.50000000  0.71107664  0.80466446  1
  C  C59  1  0.50000000  0.28759840  0.19140213  1
  C  C60  1  0.50000000  0.28925394  0.53031411  1
  C  C61  1  0.50000000  0.29030155  0.85949768  1
  C  C62  1  0.50000000  0.35015140  0.53355730  1
  C  C63  1  0.50000000  0.35024983  0.85901566  1
  C  C64  1  0.50000000  0.41007587  0.53337801  1
  C  C65  1  0.50000000  0.41039347  0.85862722  1
  C  C66  1  0.50000000  0.47024151  0.53314994  1
  C  C67  1  0.50000000  0.47044662  0.85879242  1
  C  C68  1  0.50000000  0.53034376  0.53316525  1
  C  C69  1  0.50000000  0.53049973  0.85876844  1
  C  C70  1  0.50000000  0.59030398  0.53318298  1
  C  C71  1  0.50000000  0.59053061  0.85871754  1
  C  C72  1  0.50000000  0.65012778  0.53287224  1
  C  C73  1  0.50000000  0.65062132  0.85901409  1
  C  C74  1  0.50000000  0.71009585  0.53152651  1
  C  C75  1  0.50000000  0.71107635  0.86022853  1
  C  C76  1  0.50000000  0.26002346  0.22376063  1
  C  C77  1  0.50000000  0.26007330  0.56007036  1
  C  C78  1  0.50000000  0.26052927  0.88806835  1
  C  C79  1  0.50000000  0.32029905  0.55821564  1
  C  C80  1  0.50000000  0.32003824  0.88643929  1
  C  C81  1  0.50000000  0.38044084  0.55961003  1
  C  C82  1  0.50000000  0.38030941  0.88551531  1
  C  C83  1  0.50000000  0.44034904  0.55918464  1
  C  C84  1  0.50000000  0.44035153  0.88571680  1
  C  C85  1  0.50000000  0.50034156  0.55911148  1
  C  C86  1  0.50000000  0.50038170  0.88575776  1
  C  C87  1  0.50000000  0.56035453  0.55917307  1
  C  C88  1  0.50000000  0.56045715  0.88565812  1
  C  C89  1  0.50000000  0.62032409  0.55914096  1
  C  C90  1  0.50000000  0.62060130  0.88573078  1
  C  C91  1  0.50000000  0.68018043  0.55856856  1
  C  C92  1  0.50000000  0.68068427  0.88651394  1
  C  C93  1  0.50000000  0.73941664  0.55758926  1
  C  C94  1  0.50000000  0.73995769  0.88903277  1
  C  C95  1  0.50000000  0.26009580  0.27648883  1
  C  C96  1  0.50000000  0.26050129  0.61204073  1
  C  C97  1  0.50000000  0.26015831  0.94001408  1
  C  C98  1  0.50000000  0.32002132  0.61356588  1
  C  C99  1  0.50000000  0.32034382  0.94180137  1
  C  C100  1  0.50000000  0.38029350  0.61442477  1
  C  C101  1  0.50000000  0.38047593  0.94032726  1
  C  C102  1  0.50000000  0.44033807  0.61419869  1
  C  C103  1  0.50000000  0.44037313  0.94072493  1
  C  C104  1  0.50000000  0.50037754  0.61415404  1
  C  C105  1  0.50000000  0.50034737  0.94079735  1
  C  C106  1  0.50000000  0.56046212  0.61426117  1
  C  C107  1  0.50000000  0.56033935  0.94073933  1
  C  C108  1  0.50000000  0.62061328  0.61421192  1
  C  C109  1  0.50000000  0.62029856  0.94078952  1
  C  C110  1  0.50000000  0.68070295  0.61346248  1
  C  C111  1  0.50000000  0.68014341  0.94141101  1
  C  C112  1  0.50000000  0.73998168  0.61100244  1
  C  C113  1  0.50000000  0.73937363  0.94245454  1
  H  H114  1  0.50000000  0.23610715  0.03483613  1
  H  H115  1  0.50000000  0.23554782  0.37527836  1
  H  H116  1  0.50000000  0.23735267  0.70436876  1
  H  H117  1  0.50000000  0.76363237  0.70411683  1
  H  H118  1  0.50000000  0.23547931  0.12470140  1
  H  H119  1  0.50000000  0.23600439  0.46520942  1
  H  H120  1  0.50000000  0.23732057  0.79560160  1
  H  H121  1  0.50000000  0.76362006  0.79589180  1
  H  H122  1  0.50000000  0.23604352  0.20542765  1
  H  H123  1  0.50000000  0.23657562  0.54053265  1
  H  H124  1  0.50000000  0.23722555  0.86802290  1
  H  H125  1  0.50000000  0.76242153  0.53644977  1
  H  H126  1  0.50000000  0.76359562  0.86993009  1
  H  H127  1  0.50000000  0.23616443  0.29494104  1
  H  H128  1  0.50000000  0.23724616  0.63218620  1
  H  H129  1  0.50000000  0.23665229  0.95956478  1
  H  H130  1  0.50000000  0.76362201  0.63008998  1
  H  H131  1  0.50000000  0.76234240  0.96368310  1
  H  H132  1  0.50000000  0.31181730  0.29072552  1
  H  H133  1  0.50000000  0.35128658  0.00802386  1
  H  H134  1  0.50000000  0.40994682  0.00829304  1
  H  H135  1  0.50000000  0.47023497  0.00851250  1
  H  H136  1  0.50000000  0.53042290  0.00849599  1
  H  H137  1  0.50000000  0.59035835  0.00847982  1
  H  H138  1  0.50000000  0.64982435  0.00882568  1
  H  H139  1  0.50000000  0.70946471  0.01018125  1
  H  H140  1  0.50000000  0.31128270  0.04330315  1
  H  H141  1  0.50000000  0.31121930  0.38015515  1
  H  H142  1  0.50000000  0.31114194  0.12010138  1
  H  H143  1  0.50000000  0.31114329  0.45676018  1
  H  H144  1  0.50000000  0.31168991  0.20942163  1
  H  H145  1  0.50000000  0.35122336  0.49194349  1
  H  H146  1  0.50000000  0.40990619  0.49161578  1
  H  H147  1  0.50000000  0.47021126  0.49139067  1
  H  H148  1  0.50000000  0.53042217  0.49141064  1
  H  H149  1  0.50000000  0.59039800  0.49142873  1
  H  H150  1  0.50000000  0.64990860  0.49112778  1
  H  H151  1  0.50000000  0.70954489  0.48982556  1
