# generated using pymatgen
data_HC3
_symmetry_space_group_name_H-M   'P 1'
_cell_length_a   10.00000000
_cell_length_b   41.10890000
_cell_length_c   26.81223351
_cell_angle_alpha   90.00000000
_cell_angle_beta   90.00000000
_cell_angle_gamma   90.00000000
_symmetry_Int_Tables_number   1
_chemical_formula_structural   HC3
_chemical_formula_sum   'H38 C114'
_cell_volume   11022.21425985
_cell_formula_units_Z   38
loop_
 _symmetry_equiv_pos_site_id
 _symmetry_equiv_pos_as_xyz
  1  'x, y, z'
loop_
 _atom_site_type_symbol
 _atom_site_label
 _atom_site_symmetry_multiplicity
 _atom_site_fract_x
 _atom_site_fract_y
 _atom_site_fract_z
 _atom_site_occupancy
  C  C0  1  0.50000000  0.28757817  0.64216097  1
  C  C1  1  0.50000000  0.28834053  0.96412299  1
  C  C2  1  0.50000000  0.34790838  0.64318842  1
  C  C3  1  0.50000000  0.34840242  0.96289683  1
  C  C4  1  0.50000000  0.40789965  0.64364330  1
  C  C5  1  0.50000000  0.40829957  0.96215072  1
  C  C6  1  0.50000000  0.46792585  0.64406599  1
  C  C7  1  0.50000000  0.46813374  0.96131411  1
  C  C8  1  0.50000000  0.52840849  0.64316475  1
  C  C9  1  0.50000000  0.52749105  0.96088232  1
  C  C10  1  0.50000000  0.60192117  0.30866102  1
  C  C11  1  0.50000000  0.58837134  0.64256065  1
  C  C12  1  0.50000000  0.58787829  0.96764146  1
  C  C13  1  0.50000000  0.64831578  0.64266275  1
  C  C14  1  0.50000000  0.64876492  0.96221751  1
  C  C15  1  0.50000000  0.70897996  0.64273795  1
  C  C16  1  0.50000000  0.70860138  0.96292891  1
  C  C17  1  0.50000000  0.28760015  0.69654931  1
  C  C18  1  0.50000000  0.34783364  0.69671233  1
  C  C19  1  0.50000000  0.40784574  0.69690173  1
  C  C20  1  0.50000000  0.46802837  0.69727296  1
  C  C21  1  0.50000000  0.52848400  0.69670516  1
  C  C22  1  0.50000000  0.58983317  0.02001898  1
  C  C23  1  0.50000000  0.60078313  0.36055552  1
  C  C24  1  0.50000000  0.58845699  0.69608851  1
  C  C25  1  0.50000000  0.64831288  0.69636689  1
  C  C26  1  0.50000000  0.70873500  0.69690855  1
  C  C27  1  0.50000000  0.25853869  0.72425066  1
  C  C28  1  0.50000000  0.31759973  0.72328458  1
  C  C29  1  0.50000000  0.37770022  0.72325844  1
  C  C30  1  0.50000000  0.43790596  0.72336736  1
  C  C31  1  0.50000000  0.49832613  0.72330546  1
  C  C32  1  0.50000000  0.56668791  0.05941214  1
  C  C33  1  0.50000000  0.57182991  0.38916573  1
  C  C34  1  0.50000000  0.55846788  0.72316871  1
  C  C35  1  0.50000000  0.61849095  0.72300939  1
  C  C36  1  0.50000000  0.67853421  0.72317582  1
  C  C37  1  0.50000000  0.73788255  0.72423663  1
  C  C38  1  0.50000000  0.25852690  0.77591090  1
  C  C39  1  0.50000000  0.31758826  0.77686391  1
  C  C40  1  0.50000000  0.37769012  0.77678538  1
  C  C41  1  0.50000000  0.43789863  0.77656732  1
  C  C42  1  0.50000000  0.49832332  0.77656049  1
  C  C43  1  0.50000000  0.57196010  0.11075794  1
  C  C44  1  0.50000000  0.56658406  0.44050165  1
  C  C45  1  0.50000000  0.55846945  0.77670852  1
  C  C46  1  0.50000000  0.61849040  0.77690126  1
  C  C47  1  0.50000000  0.67853496  0.77678924  1
  C  C48  1  0.50000000  0.73788354  0.77576125  1
  C  C49  1  0.50000000  0.28758186  0.80362633  1
  C  C50  1  0.50000000  0.34782714  0.80339113  1
  C  C51  1  0.50000000  0.40784346  0.80308650  1
  C  C52  1  0.50000000  0.46802787  0.80261596  1
  C  C53  1  0.50000000  0.52848454  0.80315666  1
  C  C54  1  0.50000000  0.60089279  0.13946161  1
  C  C55  1  0.50000000  0.58978571  0.47985099  1
  C  C56  1  0.50000000  0.58845484  0.80380451  1
  C  C57  1  0.50000000  0.64831180  0.80357944  1
  C  C58  1  0.50000000  0.70873202  0.80308179  1
  C  C59  1  0.50000000  0.28829781  0.53612040  1
  C  C60  1  0.50000000  0.28755666  0.85802979  1
  C  C61  1  0.50000000  0.34836139  0.53726334  1
  C  C62  1  0.50000000  0.34790023  0.85691688  1
  C  C63  1  0.50000000  0.40825120  0.53784733  1
  C  C64  1  0.50000000  0.40789267  0.85634318  1
  C  C65  1  0.50000000  0.46810493  0.53852767  1
  C  C66  1  0.50000000  0.46792680  0.85581392  1
  C  C67  1  0.50000000  0.52748574  0.53894892  1
  C  C68  1  0.50000000  0.52841375  0.85668225  1
  C  C69  1  0.50000000  0.60197520  0.19136198  1
  C  C70  1  0.50000000  0.58787969  0.53223898  1
  C  C71  1  0.50000000  0.58837195  0.85733502  1
  C  C72  1  0.50000000  0.64877896  0.53775129  1
  C  C73  1  0.50000000  0.64832389  0.85730142  1
  C  C74  1  0.50000000  0.70859633  0.53714928  1
  C  C75  1  0.50000000  0.70897906  0.85725397  1
  C  C76  1  0.50000000  0.25906939  0.56187724  1
  C  C77  1  0.50000000  0.25864682  0.88607014  1
  C  C78  1  0.50000000  0.31831484  0.56242040  1
  C  C79  1  0.50000000  0.31789217  0.88392141  1
  C  C80  1  0.50000000  0.37815766  0.56303900  1
  C  C81  1  0.50000000  0.37792841  0.88304602  1
  C  C82  1  0.50000000  0.43799724  0.56362356  1
  C  C83  1  0.50000000  0.43803338  0.88243080  1
  C  C84  1  0.50000000  0.49757867  0.56465702  1
  C  C85  1  0.50000000  0.49799766  0.88193250  1
  C  C86  1  0.50000000  0.57474280  0.22405471  1
  C  C87  1  0.50000000  0.55772110  0.56173458  1
  C  C88  1  0.50000000  0.55834933  0.88395721  1
  C  C89  1  0.50000000  0.61865292  0.56125655  1
  C  C90  1  0.50000000  0.61845062  0.88441913  1
  C  C91  1  0.50000000  0.67875460  0.56347372  1
  C  C92  1  0.50000000  0.67874681  0.88325236  1
  C  C93  1  0.50000000  0.73787271  0.56288402  1
  C  C94  1  0.50000000  0.73801389  0.88492129  1
  C  C95  1  0.50000000  0.25864814  0.61420511  1
  C  C96  1  0.50000000  0.25910551  0.93839258  1
  C  C97  1  0.50000000  0.31789426  0.61623531  1
  C  C98  1  0.50000000  0.31834192  0.93775731  1
  C  C99  1  0.50000000  0.37792339  0.61701151  1
  C  C100  1  0.50000000  0.37818143  0.93703624  1
  C  C101  1  0.50000000  0.43802583  0.61748554  1
  C  C102  1  0.50000000  0.43801682  0.93628431  1
  C  C103  1  0.50000000  0.49799245  0.61790873  1
  C  C104  1  0.50000000  0.49759331  0.93516804  1
  C  C105  1  0.50000000  0.57473082  0.27584543  1
  C  C106  1  0.50000000  0.55834986  0.61590722  1
  C  C107  1  0.50000000  0.55773079  0.93813401  1
  C  C108  1  0.50000000  0.61845281  0.61550416  1
  C  C109  1  0.50000000  0.61865149  0.93865403  1
  C  C110  1  0.50000000  0.67874328  0.61675190  1
  C  C111  1  0.50000000  0.67876152  0.93655319  1
  C  C112  1  0.50000000  0.73802682  0.61508916  1
  C  C113  1  0.50000000  0.73786161  0.93712282  1
  H  H114  1  0.50000000  0.23511316  0.70499364  1
  H  H115  1  0.50000000  0.76125130  0.70484981  1
  H  H116  1  0.50000000  0.23509155  0.79514697  1
  H  H117  1  0.50000000  0.76125764  0.79513485  1
  H  H118  1  0.50000000  0.23600958  0.54137709  1
  H  H119  1  0.50000000  0.23505554  0.86728915  1
  H  H120  1  0.50000000  0.76097420  0.54250008  1
  H  H121  1  0.50000000  0.76147887  0.86576374  1
  H  H122  1  0.50000000  0.23513395  0.63322075  1
  H  H123  1  0.50000000  0.23603189  0.95887248  1
  H  H124  1  0.50000000  0.76146659  0.63430712  1
  H  H125  1  0.50000000  0.76103793  0.95727532  1
  H  H126  1  0.50000000  0.28856277  0.00501230  1
  H  H127  1  0.50000000  0.34859406  0.00381887  1
  H  H128  1  0.50000000  0.40869190  0.00304904  1
  H  H129  1  0.50000000  0.46855196  0.00220483  1
  H  H130  1  0.50000000  0.52532045  0.00095685  1
  H  H131  1  0.50000000  0.62624660  0.29178600  1
  H  H132  1  0.50000000  0.65064297  0.00286897  1
  H  H133  1  0.50000000  0.70829321  0.00383248  1
  H  H134  1  0.50000000  0.61469233  0.03447602  1
  H  H135  1  0.50000000  0.62421466  0.38020011  1
  H  H136  1  0.50000000  0.54073457  0.05145436  1
  H  H137  1  0.50000000  0.54920291  0.36740979  1
  H  H138  1  0.50000000  0.54928887  0.13238781  1
  H  H139  1  0.50000000  0.54062890  0.44842648  1
  H  H140  1  0.50000000  0.62436387  0.11993797  1
  H  H141  1  0.50000000  0.61462807  0.46530235  1
  H  H142  1  0.50000000  0.28852522  0.49523960  1
  H  H143  1  0.50000000  0.34854526  0.49638594  1
  H  H144  1  0.50000000  0.40859497  0.49696768  1
  H  H145  1  0.50000000  0.46850701  0.49761999  1
  H  H146  1  0.50000000  0.52536477  0.49883453  1
  H  H147  1  0.50000000  0.62622190  0.20853915  1
  H  H148  1  0.50000000  0.65069956  0.49711811  1
  H  H149  1  0.50000000  0.70830393  0.49628578  1
  H  H150  1  0.50000000  0.55052986  0.20671654  1
  H  H151  1  0.50000000  0.55047509  0.29303502  1
