# generated using pymatgen
data_HC3
_symmetry_space_group_name_H-M   'P 1'
_cell_length_a   10.00000000
_cell_length_b   41.10890000
_cell_length_c   26.68088289
_cell_angle_alpha   90.00000000
_cell_angle_beta   90.00000000
_cell_angle_gamma   90.00000000
_symmetry_Int_Tables_number   1
_chemical_formula_structural   HC3
_chemical_formula_sum   'H38 C114'
_cell_volume   10968.21746476
_cell_formula_units_Z   38
loop_
 _symmetry_equiv_pos_site_id
 _symmetry_equiv_pos_as_xyz
  1  'x, y, z'
loop_
 _atom_site_type_symbol
 _atom_site_label
 _atom_site_symmetry_multiplicity
 _atom_site_fract_x
 _atom_site_fract_y
 _atom_site_fract_z
 _atom_site_occupancy
  C  C0  1  0.50000000  0.28609314  0.64155300  1
  C  C1  1  0.50000000  0.28721833  0.96522411  1
  C  C2  1  0.50000000  0.34654953  0.64266828  1
  C  C3  1  0.50000000  0.34718239  0.96391974  1
  C  C4  1  0.50000000  0.40662765  0.64291750  1
  C  C5  1  0.50000000  0.40695734  0.96361683  1
  C  C6  1  0.50000000  0.46660987  0.64288203  1
  C  C7  1  0.50000000  0.46686364  0.96369658  1
  C  C8  1  0.50000000  0.52662295  0.64296100  1
  C  C9  1  0.50000000  0.52694096  0.96354275  1
  C  C10  1  0.50000000  0.58669181  0.64327298  1
  C  C11  1  0.50000000  0.58697725  0.96297439  1
  C  C12  1  0.50000000  0.64700009  0.64251479  1
  C  C13  1  0.50000000  0.64648992  0.96294999  1
  C  C14  1  0.50000000  0.73245127  0.31009497  1
  C  C15  1  0.50000000  0.70689184  0.64178151  1
  C  C16  1  0.50000000  0.70742760  0.96785448  1
  C  C17  1  0.50000000  0.28610277  0.69626410  1
  C  C18  1  0.50000000  0.34645700  0.69648250  1
  C  C19  1  0.50000000  0.40654122  0.69654470  1
  C  C20  1  0.50000000  0.46657109  0.69660407  1
  C  C21  1  0.50000000  0.52664417  0.69669014  1
  C  C22  1  0.50000000  0.58680468  0.69682484  1
  C  C23  1  0.50000000  0.64703999  0.69631134  1
  C  C24  1  0.50000000  0.71246831  0.02019567  1
  C  C25  1  0.50000000  0.72870577  0.36208922  1
  C  C26  1  0.50000000  0.70710693  0.69593555  1
  C  C27  1  0.50000000  0.25705298  0.72417890  1
  C  C28  1  0.50000000  0.31616100  0.72314173  1
  C  C29  1  0.50000000  0.37638045  0.72311132  1
  C  C30  1  0.50000000  0.43657774  0.72321270  1
  C  C31  1  0.50000000  0.49662145  0.72328461  1
  C  C32  1  0.50000000  0.55665150  0.72330235  1
  C  C33  1  0.50000000  0.61695269  0.72313650  1
  C  C34  1  0.50000000  0.69090672  0.06125454  1
  C  C35  1  0.50000000  0.69846984  0.38737324  1
  C  C36  1  0.50000000  0.67714109  0.72306534  1
  C  C37  1  0.50000000  0.73639279  0.72412913  1
  C  C38  1  0.50000000  0.25709992  0.77611972  1
  C  C39  1  0.50000000  0.31619931  0.77702994  1
  C  C40  1  0.50000000  0.37641023  0.77697377  1
  C  C41  1  0.50000000  0.43659894  0.77692581  1
  C  C42  1  0.50000000  0.49663793  0.77685954  1
  C  C43  1  0.50000000  0.55666193  0.77678634  1
  C  C44  1  0.50000000  0.61695635  0.77687233  1
  C  C45  1  0.50000000  0.69829307  0.11228722  1
  C  C46  1  0.50000000  0.69133262  0.43856652  1
  C  C47  1  0.50000000  0.67714400  0.77694286  1
  C  C48  1  0.50000000  0.73639742  0.77585747  1
  C  C49  1  0.50000000  0.28617376  0.80396697  1
  C  C50  1  0.50000000  0.34651299  0.80363723  1
  C  C51  1  0.50000000  0.40657046  0.80357475  1
  C  C52  1  0.50000000  0.46659600  0.80354703  1
  C  C53  1  0.50000000  0.52666948  0.80343658  1
  C  C54  1  0.50000000  0.58681583  0.80322916  1
  C  C55  1  0.50000000  0.64703722  0.80366780  1
  C  C56  1  0.50000000  0.72875555  0.13691432  1
  C  C57  1  0.50000000  0.71280675  0.47977130  1
  C  C58  1  0.50000000  0.70711826  0.80406853  1
  C  C59  1  0.50000000  0.28702778  0.53500306  1
  C  C60  1  0.50000000  0.28621876  0.85866746  1
  C  C61  1  0.50000000  0.34701421  0.53628656  1
  C  C62  1  0.50000000  0.34664745  0.85746169  1
  C  C63  1  0.50000000  0.40684321  0.53651498  1
  C  C64  1  0.50000000  0.40669865  0.85721377  1
  C  C65  1  0.50000000  0.46676624  0.53644144  1
  C  C66  1  0.50000000  0.46666911  0.85727503  1
  C  C67  1  0.50000000  0.52685931  0.53664745  1
  C  C68  1  0.50000000  0.52666664  0.85716858  1
  C  C69  1  0.50000000  0.58690732  0.53706803  1
  C  C70  1  0.50000000  0.58669932  0.85677587  1
  C  C71  1  0.50000000  0.64650585  0.53697127  1
  C  C72  1  0.50000000  0.64698408  0.85743169  1
  C  C73  1  0.50000000  0.73268820  0.18892078  1
  C  C74  1  0.50000000  0.70755345  0.53211327  1
  C  C75  1  0.50000000  0.70689486  0.85823113  1
  C  C76  1  0.50000000  0.25770910  0.56064145  1
  C  C77  1  0.50000000  0.25732763  0.88696488  1
  C  C78  1  0.50000000  0.31696303  0.56157864  1
  C  C79  1  0.50000000  0.31660411  0.88457603  1
  C  C80  1  0.50000000  0.37683021  0.56210545  1
  C  C81  1  0.50000000  0.37665052  0.88379551  1
  C  C82  1  0.50000000  0.43678886  0.56209527  1
  C  C83  1  0.50000000  0.43675127  0.88379304  1
  C  C84  1  0.50000000  0.49673699  0.56207352  1
  C  C85  1  0.50000000  0.49677349  0.88384681  1
  C  C86  1  0.50000000  0.55666336  0.56242143  1
  C  C87  1  0.50000000  0.55676700  0.88355280  1
  C  C88  1  0.50000000  0.61644797  0.56303837  1
  C  C89  1  0.50000000  0.61677973  0.88312802  1
  C  C90  1  0.50000000  0.70647957  0.22343950  1
  C  C91  1  0.50000000  0.67669164  0.56021601  1
  C  C92  1  0.50000000  0.67714942  0.88484632  1
  C  C93  1  0.50000000  0.73659229  0.56208330  1
  C  C94  1  0.50000000  0.73649271  0.88673635  1
  C  C95  1  0.50000000  0.25718237  0.61325813  1
  C  C96  1  0.50000000  0.25791853  0.93955284  1
  C  C97  1  0.50000000  0.31646837  0.61562742  1
  C  C98  1  0.50000000  0.31713302  0.93864125  1
  C  C99  1  0.50000000  0.37655877  0.61633514  1
  C  C100  1  0.50000000  0.37695514  0.93802521  1
  C  C101  1  0.50000000  0.43668320  0.61634757  1
  C  C102  1  0.50000000  0.43688585  0.93803472  1
  C  C103  1  0.50000000  0.49670800  0.61630541  1
  C  C104  1  0.50000000  0.49682914  0.93808187  1
  C  C105  1  0.50000000  0.55673071  0.61657028  1
  C  C106  1  0.50000000  0.55672640  0.93771163  1
  C  C107  1  0.50000000  0.61677588  0.61685111  1
  C  C108  1  0.50000000  0.61646440  0.93691570  1
  C  C109  1  0.50000000  0.70633074  0.27545623  1
  C  C110  1  0.50000000  0.67717962  0.61508324  1
  C  C111  1  0.50000000  0.67663747  0.93967559  1
  C  C112  1  0.50000000  0.73652089  0.61337666  1
  C  C113  1  0.50000000  0.73651756  0.93803222  1
  H  H114  1  0.50000000  0.23349457  0.70514567  1
  H  H115  1  0.50000000  0.75994595  0.70507066  1
  H  H116  1  0.50000000  0.23355768  0.79518266  1
  H  H117  1  0.50000000  0.75994334  0.79492411  1
  H  H118  1  0.50000000  0.23474241  0.53971205  1
  H  H119  1  0.50000000  0.23369329  0.86813575  1
  H  H120  1  0.50000000  0.76004149  0.54244883  1
  H  H121  1  0.50000000  0.75996980  0.86744261  1
  H  H122  1  0.50000000  0.23358578  0.63219211  1
  H  H123  1  0.50000000  0.23499592  0.96050528  1
  H  H124  1  0.50000000  0.75993645  0.63282438  1
  H  H125  1  0.50000000  0.75990473  0.95786782  1
  H  H126  1  0.50000000  0.28763121  0.00627836  1
  H  H127  1  0.50000000  0.34747508  0.00501469  1
  H  H128  1  0.50000000  0.40693307  0.00472651  1
  H  H129  1  0.50000000  0.46670233  0.00482957  1
  H  H130  1  0.50000000  0.52711512  0.00467335  1
  H  H131  1  0.50000000  0.58738081  0.00411203  1
  H  H132  1  0.50000000  0.64464251  0.00353670  1
  H  H133  1  0.50000000  0.75744484  0.29541467  1
  H  H134  1  0.50000000  0.73840435  0.03023992  1
  H  H135  1  0.50000000  0.75107372  0.38456099  1
  H  H136  1  0.50000000  0.66475899  0.05437986  1
  H  H137  1  0.50000000  0.67672872  0.36346928  1
  H  H138  1  0.50000000  0.67671743  0.13647529  1
  H  H139  1  0.50000000  0.66521595  0.44571993  1
  H  H140  1  0.50000000  0.75083498  0.11374585  1
  H  H141  1  0.50000000  0.73878618  0.47003925  1
  H  H142  1  0.50000000  0.28749333  0.49394356  1
  H  H143  1  0.50000000  0.34721169  0.49519455  1
  H  H144  1  0.50000000  0.40679967  0.49540546  1
  H  H145  1  0.50000000  0.46660970  0.49530193  1
  H  H146  1  0.50000000  0.52706763  0.49553238  1
  H  H147  1  0.50000000  0.58726440  0.49592595  1
  H  H148  1  0.50000000  0.64464442  0.49636576  1
  H  H149  1  0.50000000  0.75765420  0.20357230  1
  H  H150  1  0.50000000  0.68207166  0.20683350  1
  H  H151  1  0.50000000  0.68178712  0.29163658  1
