# generated using pymatgen
data_H6C17
_symmetry_space_group_name_H-M   'P 1'
_cell_length_a   20.00000000
_cell_length_b   40.19450000
_cell_length_c   26.28667487
_cell_angle_alpha   90.00000000
_cell_angle_beta   90.00000000
_cell_angle_gamma   90.00000000
_symmetry_Int_Tables_number   1
_chemical_formula_structural   H6C17
_chemical_formula_sum   'H36 C102'
_cell_volume   21131.59506260
_cell_formula_units_Z   6
loop_
 _symmetry_equiv_pos_site_id
 _symmetry_equiv_pos_as_xyz
  1  'x, y, z'
loop_
 _atom_site_type_symbol
 _atom_site_label
 _atom_site_symmetry_multiplicity
 _atom_site_fract_x
 _atom_site_fract_y
 _atom_site_fract_z
 _atom_site_occupancy
  C  C0  1  0.50000000  0.28497506  0.10637520  1
  C  C1  1  0.50000000  0.28581218  0.61166538  1
  C  C2  1  0.50000000  0.28543423  0.27615482  1
  C  C3  1  0.50000000  0.28612397  0.77592074  1
  C  C4  1  0.50000000  0.28508683  0.44626339  1
  C  C5  1  0.50000000  0.28540278  0.93976072  1
  C  C6  1  0.50000000  0.31333694  0.13837048  1
  C  C7  1  0.50000000  0.31628633  0.64019591  1
  C  C8  1  0.50000000  0.31361314  0.30857879  1
  C  C9  1  0.50000000  0.31608154  0.80443787  1
  C  C10  1  0.50000000  0.31391154  0.47680248  1
  C  C11  1  0.50000000  0.31525821  0.96949036  1
  C  C12  1  0.50000000  0.28523738  0.05343318  1
  C  C13  1  0.50000000  0.28544560  0.55973211  1
  C  C14  1  0.50000000  0.28549233  0.22344585  1
  C  C15  1  0.50000000  0.28611825  0.72349122  1
  C  C16  1  0.50000000  0.28471700  0.39332000  1
  C  C17  1  0.50000000  0.28576610  0.88779802  1
  C  C18  1  0.50000000  0.34669119  0.61331580  1
  C  C19  1  0.50000000  0.34682061  0.77702058  1
  C  C20  1  0.50000000  0.34698318  0.94149402  1
  C  C21  1  0.50000000  0.37758865  0.64078754  1
  C  C22  1  0.50000000  0.37756246  0.80412410  1
  C  C23  1  0.50000000  0.37754074  0.96605380  1
  C  C24  1  0.50000000  0.31396903  0.02267974  1
  C  C25  1  0.50000000  0.31529261  0.52998650  1
  C  C26  1  0.50000000  0.31373434  0.19113162  1
  C  C27  1  0.50000000  0.31610563  0.69502008  1
  C  C28  1  0.50000000  0.31309147  0.36135411  1
  C  C29  1  0.50000000  0.31623573  0.85923789  1
  C  C30  1  0.50000000  0.34700510  0.55794074  1
  C  C31  1  0.50000000  0.34683203  0.72244916  1
  C  C32  1  0.50000000  0.34665629  0.88611649  1
  C  C33  1  0.50000000  0.40829927  0.61432596  1
  C  C34  1  0.50000000  0.40829493  0.77698540  1
  C  C35  1  0.50000000  0.40846165  0.93988678  1
  C  C36  1  0.50000000  0.43909219  0.64119033  1
  C  C37  1  0.50000000  0.43906692  0.80384743  1
  C  C38  1  0.50000000  0.43873473  0.96613162  1
  C  C39  1  0.50000000  0.37754904  0.53337115  1
  C  C40  1  0.50000000  0.37757126  0.69533199  1
  C  C41  1  0.50000000  0.37756752  0.85866452  1
  C  C42  1  0.50000000  0.40846112  0.55955279  1
  C  C43  1  0.50000000  0.40829449  0.72249501  1
  C  C44  1  0.50000000  0.40828985  0.88511810  1
  C  C45  1  0.50000000  0.46967467  0.61411396  1
  C  C46  1  0.50000000  0.46982907  0.77690728  1
  C  C47  1  0.50000000  0.46969813  0.94037362  1
  C  C48  1  0.50000000  0.50047228  0.64100870  1
  C  C49  1  0.50000000  0.50054577  0.80395676  1
  C  C50  1  0.50000000  0.50021416  0.96643541  1
  C  C51  1  0.50000000  0.43872150  0.53333733  1
  C  C52  1  0.50000000  0.43905833  0.69562695  1
  C  C53  1  0.50000000  0.43910843  0.85827889  1
  C  C54  1  0.50000000  0.46966089  0.55909922  1
  C  C55  1  0.50000000  0.46982415  0.72255974  1
  C  C56  1  0.50000000  0.46970488  0.88535654  1
  C  C57  1  0.50000000  0.53106407  0.61399208  1
  C  C58  1  0.50000000  0.53127263  0.77697619  1
  C  C59  1  0.50000000  0.53102208  0.94052441  1
  C  C60  1  0.50000000  0.56181638  0.64094690  1
  C  C61  1  0.50000000  0.56197888  0.80403758  1
  C  C62  1  0.50000000  0.56159903  0.96653824  1
  C  C63  1  0.50000000  0.50014948  0.53303012  1
  C  C64  1  0.50000000  0.50053348  0.69551102  1
  C  C65  1  0.50000000  0.50051462  0.85846969  1
  C  C66  1  0.50000000  0.53093443  0.55893370  1
  C  C67  1  0.50000000  0.53125982  0.72248887  1
  C  C68  1  0.50000000  0.53113086  0.88545590  1
  C  C69  1  0.50000000  0.59250136  0.61388743  1
  C  C70  1  0.50000000  0.59281361  0.77703551  1
  C  C71  1  0.50000000  0.59233068  0.94058446  1
  C  C72  1  0.50000000  0.62320680  0.64064217  1
  C  C73  1  0.50000000  0.62339793  0.80408533  1
  C  C74  1  0.50000000  0.62282829  0.96679889  1
  C  C75  1  0.50000000  0.56147600  0.53290974  1
  C  C76  1  0.50000000  0.56194902  0.69540288  1
  C  C77  1  0.50000000  0.56188979  0.85849761  1
  C  C78  1  0.50000000  0.59219729  0.55883191  1
  C  C79  1  0.50000000  0.59279461  0.72237662  1
  C  C80  1  0.50000000  0.59260222  0.88552108  1
  C  C81  1  0.50000000  0.65388509  0.61313562  1
  C  C82  1  0.50000000  0.65436294  0.77700770  1
  C  C83  1  0.50000000  0.65351602  0.94101758  1
  C  C84  1  0.50000000  0.68497305  0.63942549  1
  C  C85  1  0.50000000  0.68509942  0.80427811  1
  C  C86  1  0.50000000  0.68411273  0.96806230  1
  C  C87  1  0.50000000  0.62264436  0.53255129  1
  C  C88  1  0.50000000  0.62335687  0.69528471  1
  C  C89  1  0.50000000  0.62330077  0.85871957  1
  C  C90  1  0.50000000  0.65335031  0.55824947  1
  C  C91  1  0.50000000  0.65432820  0.72230736  1
  C  C92  1  0.50000000  0.65401911  0.88613781  1
  C  C93  1  0.50000000  0.71447284  0.61065715  1
  C  C94  1  0.50000000  0.71481204  0.77593223  1
  C  C95  1  0.50000000  0.71408640  0.94200957  1
  C  C96  1  0.50000000  0.68393480  0.53119175  1
  C  C97  1  0.50000000  0.68501636  0.69494755  1
  C  C98  1  0.50000000  0.68511083  0.85981494  1
  C  C99  1  0.50000000  0.71390852  0.55724924  1
  C  C100  1  0.50000000  0.71477061  0.72318252  1
  C  C101  1  0.50000000  0.71462694  0.88857669  1
  H  H102  1  0.50000000  0.26040600  0.12456825  1
  H  H103  1  0.50000000  0.26195994  0.63168740  1
  H  H104  1  0.50000000  0.26091496  0.29445439  1
  H  H105  1  0.50000000  0.26208963  0.79541858  1
  H  H106  1  0.50000000  0.26074561  0.46513049  1
  H  H107  1  0.50000000  0.26138348  0.95935473  1
  H  H108  1  0.50000000  0.26083973  0.03474664  1
  H  H109  1  0.50000000  0.26140608  0.54022649  1
  H  H110  1  0.50000000  0.26099758  0.20501480  1
  H  H111  1  0.50000000  0.26208387  0.70400684  1
  H  H112  1  0.50000000  0.26010756  0.37524663  1
  H  H113  1  0.50000000  0.26192683  0.86775223  1
  H  H114  1  0.50000000  0.73863240  0.62977308  1
  H  H115  1  0.50000000  0.73883865  0.79543109  1
  H  H116  1  0.50000000  0.73762378  0.96311051  1
  H  H117  1  0.50000000  0.73747048  0.53624181  1
  H  H118  1  0.50000000  0.73876092  0.70357012  1
  H  H119  1  0.50000000  0.73878191  0.86947895  1
  H  H120  1  0.50000000  0.68329338  0.48950391  1
  H  H121  1  0.50000000  0.62245095  0.49083468  1
  H  H122  1  0.50000000  0.56171222  0.00827360  1
  H  H123  1  0.50000000  0.62278016  0.00854111  1
  H  H124  1  0.50000000  0.56156237  0.49119040  1
  H  H125  1  0.50000000  0.68348519  0.00976741  1
  H  H126  1  0.50000000  0.50018252  0.00818419  1
  H  H127  1  0.50000000  0.50011526  0.49130547  1
  H  H128  1  0.50000000  0.43849197  0.00788241  1
  H  H129  1  0.50000000  0.43849391  0.49159908  1
  H  H130  1  0.50000000  0.37885035  0.00764871  1
  H  H131  1  0.50000000  0.37886261  0.49179928  1
  H  H132  1  0.50000000  0.33772577  0.11964584  1
  H  H133  1  0.50000000  0.33828674  0.29075251  1
  H  H134  1  0.50000000  0.33757962  0.45633612  1
  H  H135  1  0.50000000  0.33771164  0.04297855  1
  H  H136  1  0.50000000  0.33838915  0.20910016  1
  H  H137  1  0.50000000  0.33746368  0.38009471  1
