# generated using pymatgen
data_HC3
_symmetry_space_group_name_H-M   'P 1'
_cell_length_a   10.00000000
_cell_length_b   41.10890000
_cell_length_c   26.78003443
_cell_angle_alpha   90.00000000
_cell_angle_beta   90.00000000
_cell_angle_gamma   90.00000000
_symmetry_Int_Tables_number   1
_chemical_formula_structural   HC3
_chemical_formula_sum   'H38 C114'
_cell_volume   11008.97757221
_cell_formula_units_Z   38
loop_
 _symmetry_equiv_pos_site_id
 _symmetry_equiv_pos_as_xyz
  1  'x, y, z'
loop_
 _atom_site_type_symbol
 _atom_site_label
 _atom_site_symmetry_multiplicity
 _atom_site_fract_x
 _atom_site_fract_y
 _atom_site_fract_z
 _atom_site_occupancy
  C  C0  1  0.50000000  0.29113437  0.64180966  1
  C  C1  1  0.50000000  0.29215111  0.96430212  1
  C  C2  1  0.50000000  0.35156740  0.64298078  1
  C  C3  1  0.50000000  0.35206862  0.96297652  1
  C  C4  1  0.50000000  0.41160633  0.64333448  1
  C  C5  1  0.50000000  0.41192904  0.96253226  1
  C  C6  1  0.50000000  0.47161383  0.64344143  1
  C  C7  1  0.50000000  0.47186570  0.96232093  1
  C  C8  1  0.50000000  0.53170699  0.64370776  1
  C  C9  1  0.50000000  0.53190183  0.96194111  1
  C  C10  1  0.50000000  0.59212895  0.64294836  1
  C  C11  1  0.50000000  0.59158577  0.96188917  1
  C  C12  1  0.50000000  0.63530494  0.30957000  1
  C  C13  1  0.50000000  0.65197465  0.64250282  1
  C  C14  1  0.50000000  0.65259638  0.96784857  1
  C  C15  1  0.50000000  0.71219224  0.64262180  1
  C  C16  1  0.50000000  0.71366129  0.96162856  1
  C  C17  1  0.50000000  0.29109432  0.69631812  1
  C  C18  1  0.50000000  0.35140807  0.69657941  1
  C  C19  1  0.50000000  0.41147037  0.69672469  1
  C  C20  1  0.50000000  0.47156241  0.69687711  1
  C  C21  1  0.50000000  0.53178500  0.69710480  1
  C  C22  1  0.50000000  0.59211240  0.69657427  1
  C  C23  1  0.50000000  0.65031085  0.02021722  1
  C  C24  1  0.50000000  0.63745364  0.36147211  1
  C  C25  1  0.50000000  0.65192257  0.69602645  1
  C  C26  1  0.50000000  0.71185528  0.69678891  1
  C  C27  1  0.50000000  0.26203150  0.72406610  1
  C  C28  1  0.50000000  0.32111650  0.72310710  1
  C  C29  1  0.50000000  0.38129049  0.72313343  1
  C  C30  1  0.50000000  0.44151544  0.72325899  1
  C  C31  1  0.50000000  0.50165839  0.72337135  1
  C  C32  1  0.50000000  0.56194502  0.72330941  1
  C  C33  1  0.50000000  0.62204248  0.72317528  1
  C  C34  1  0.50000000  0.67308192  0.06009086  1
  C  C35  1  0.50000000  0.66699251  0.38884426  1
  C  C36  1  0.50000000  0.68195355  0.72319408  1
  C  C37  1  0.50000000  0.74101411  0.72432176  1
  C  C38  1  0.50000000  0.26203450  0.77582991  1
  C  C39  1  0.50000000  0.32110912  0.77677290  1
  C  C40  1  0.50000000  0.38127689  0.77674206  1
  C  C41  1  0.50000000  0.44150795  0.77669140  1
  C  C42  1  0.50000000  0.50165727  0.77659794  1
  C  C43  1  0.50000000  0.56194392  0.77672527  1
  C  C44  1  0.50000000  0.62204289  0.77689266  1
  C  C45  1  0.50000000  0.66697647  0.11130035  1
  C  C46  1  0.50000000  0.67307898  0.44004584  1
  C  C47  1  0.50000000  0.68193638  0.77684794  1
  C  C48  1  0.50000000  0.74100941  0.77574965  1
  C  C49  1  0.50000000  0.29109743  0.80356535  1
  C  C50  1  0.50000000  0.35139599  0.80329956  1
  C  C51  1  0.50000000  0.41144331  0.80318420  1
  C  C52  1  0.50000000  0.47155397  0.80307783  1
  C  C53  1  0.50000000  0.53177697  0.80288867  1
  C  C54  1  0.50000000  0.59210429  0.80346373  1
  C  C55  1  0.50000000  0.63745154  0.13867150  1
  C  C56  1  0.50000000  0.65031110  0.47989131  1
  C  C57  1  0.50000000  0.65191264  0.80405730  1
  C  C58  1  0.50000000  0.71184341  0.80328535  1
  C  C59  1  0.50000000  0.29224010  0.53556978  1
  C  C60  1  0.50000000  0.29112966  0.85805681  1
  C  C61  1  0.50000000  0.35211668  0.53691056  1
  C  C62  1  0.50000000  0.35154151  0.85690500  1
  C  C63  1  0.50000000  0.41195566  0.53731654  1
  C  C64  1  0.50000000  0.41157406  0.85656159  1
  C  C65  1  0.50000000  0.47188684  0.53755270  1
  C  C66  1  0.50000000  0.47160569  0.85649551  1
  C  C67  1  0.50000000  0.53191866  0.53800282  1
  C  C68  1  0.50000000  0.53170186  0.85627482  1
  C  C69  1  0.50000000  0.59160269  0.53808602  1
  C  C70  1  0.50000000  0.59213066  0.85707920  1
  C  C71  1  0.50000000  0.63533493  0.19058215  1
  C  C72  1  0.50000000  0.65262319  0.53225380  1
  C  C73  1  0.50000000  0.65197518  0.85756785  1
  C  C74  1  0.50000000  0.71371983  0.53850521  1
  C  C75  1  0.50000000  0.71218913  0.85746449  1
  C  C76  1  0.50000000  0.26289348  0.56108954  1
  C  C77  1  0.50000000  0.26226737  0.88629252  1
  C  C78  1  0.50000000  0.32210311  0.56218966  1
  C  C79  1  0.50000000  0.32150707  0.88387641  1
  C  C80  1  0.50000000  0.38191288  0.56270531  1
  C  C81  1  0.50000000  0.38155481  0.88313042  1
  C  C82  1  0.50000000  0.44184112  0.56293415  1
  C  C83  1  0.50000000  0.44168181  0.88292470  1
  C  C84  1  0.50000000  0.50174925  0.56321942  1
  C  C85  1  0.50000000  0.50176666  0.88280374  1
  C  C86  1  0.50000000  0.56152451  0.56390444  1
  C  C87  1  0.50000000  0.56179173  0.88255400  1
  C  C88  1  0.50000000  0.62182112  0.56129991  1
  C  C89  1  0.50000000  0.62219819  0.88439112  1
  C  C90  1  0.50000000  0.66216731  0.22417222  1
  C  C91  1  0.50000000  0.68296809  0.56153567  1
  C  C92  1  0.50000000  0.68235026  0.88482511  1
  C  C93  1  0.50000000  0.74275819  0.56524441  1
  C  C94  1  0.50000000  0.74206645  0.88328010  1
  C  C95  1  0.50000000  0.26228177  0.61352329  1
  C  C96  1  0.50000000  0.26284357  0.93870840  1
  C  C97  1  0.50000000  0.32153502  0.61601659  1
  C  C98  1  0.50000000  0.32204263  0.93773160  1
  C  C99  1  0.50000000  0.38158636  0.61675873  1
  C  C100  1  0.50000000  0.38186843  0.93718307  1
  C  C101  1  0.50000000  0.44170557  0.61696525  1
  C  C102  1  0.50000000  0.44182077  0.93693594  1
  C  C103  1  0.50000000  0.50177700  0.61714402  1
  C  C104  1  0.50000000  0.50173999  0.93670725  1
  C  C105  1  0.50000000  0.56179643  0.61743393  1
  C  C106  1  0.50000000  0.56151140  0.93605986  1
  C  C107  1  0.50000000  0.62219169  0.61566807  1
  C  C108  1  0.50000000  0.62181024  0.93874810  1
  C  C109  1  0.50000000  0.66214037  0.27600733  1
  C  C110  1  0.50000000  0.68235441  0.61527296  1
  C  C111  1  0.50000000  0.68293386  0.93857260  1
  C  C112  1  0.50000000  0.74208749  0.61686955  1
  C  C113  1  0.50000000  0.74271336  0.93491466  1
  H  H114  1  0.50000000  0.23856144  0.70493170  1
  H  H115  1  0.50000000  0.76449536  0.70538950  1
  H  H116  1  0.50000000  0.23859310  0.79504199  1
  H  H117  1  0.50000000  0.76451210  0.79461913  1
  H  H118  1  0.50000000  0.23989672  0.54034785  1
  H  H119  1  0.50000000  0.23865725  0.86751078  1
  H  H120  1  0.50000000  0.76602753  0.54523925  1
  H  H121  1  0.50000000  0.76505028  0.86290457  1
  H  H122  1  0.50000000  0.23864789  0.63226122  1
  H  H123  1  0.50000000  0.23986181  0.95946318  1
  H  H124  1  0.50000000  0.76505063  0.63725943  1
  H  H125  1  0.50000000  0.76593115  0.95507779  1
  H  H126  1  0.50000000  0.29271227  0.00523697  1
  H  H127  1  0.50000000  0.35208851  0.00394115  1
  H  H128  1  0.50000000  0.41200983  0.00348736  1
  H  H129  1  0.50000000  0.47199827  0.00327174  1
  H  H130  1  0.50000000  0.53214899  0.00289755  1
  H  H131  1  0.50000000  0.58951130  0.00253723  1
  H  H132  1  0.50000000  0.61065648  0.29367708  1
  H  H133  1  0.50000000  0.71564054  0.00183778  1
  H  H134  1  0.50000000  0.62538362  0.03444841  1
  H  H135  1  0.50000000  0.61434997  0.38215035  1
  H  H136  1  0.50000000  0.69911709  0.05273395  1
  H  H137  1  0.50000000  0.68939786  0.36650322  1
  H  H138  1  0.50000000  0.68934778  0.13371625  1
  H  H139  1  0.50000000  0.69909560  0.44756160  1
  H  H140  1  0.50000000  0.61439557  0.11787091  1
  H  H141  1  0.50000000  0.62538818  0.46565799  1
  H  H142  1  0.50000000  0.29301718  0.49465303  1
  H  H143  1  0.50000000  0.35211420  0.49593581  1
  H  H144  1  0.50000000  0.41199074  0.49635345  1
  H  H145  1  0.50000000  0.47203787  0.49659116  1
  H  H146  1  0.50000000  0.53220289  0.49703863  1
  H  H147  1  0.50000000  0.58954454  0.49741596  1
  H  H148  1  0.50000000  0.61070961  0.20658076  1
  H  H149  1  0.50000000  0.71572371  0.49830038  1
  H  H150  1  0.50000000  0.68649772  0.20713062  1
  H  H151  1  0.50000000  0.68644359  0.29313236  1
