# generated using pymatgen
data_H17C54
_symmetry_space_group_name_H-M   'P 1'
_cell_length_a   20.00000000
_cell_length_b   40.19450000
_cell_length_c   25.98015242
_cell_angle_alpha   90.00000000
_cell_angle_beta   90.00000000
_cell_angle_gamma   90.00000000
_symmetry_Int_Tables_number   1
_chemical_formula_structural   H17C54
_chemical_formula_sum   'H34 C108'
_cell_volume   20885.18473004
_cell_formula_units_Z   2
loop_
 _symmetry_equiv_pos_site_id
 _symmetry_equiv_pos_as_xyz
  1  'x, y, z'
loop_
 _atom_site_type_symbol
 _atom_site_label
 _atom_site_symmetry_multiplicity
 _atom_site_fract_x
 _atom_site_fract_y
 _atom_site_fract_z
 _atom_site_occupancy
  C  C0  1  0.50000000  0.28525397  0.61134247  1
  C  C1  1  0.50000000  0.28578533  0.77655763  1
  C  C2  1  0.50000000  0.28525793  0.94218664  1
  C  C3  1  0.50000000  0.31532374  0.63908966  1
  C  C4  1  0.50000000  0.31558526  0.80488924  1
  C  C5  1  0.50000000  0.31520084  0.96908064  1
  C  C6  1  0.50000000  0.28517853  0.55779597  1
  C  C7  1  0.50000000  0.28579348  0.72334560  1
  C  C8  1  0.50000000  0.28533067  0.88863010  1
  C  C9  1  0.50000000  0.34612105  0.61169268  1
  C  C10  1  0.50000000  0.34634451  0.77756548  1
  C  C11  1  0.50000000  0.34590593  0.94314630  1
  C  C12  1  0.50000000  0.37793851  0.13898642  1
  C  C13  1  0.50000000  0.37720426  0.63938694  1
  C  C14  1  0.50000000  0.37773606  0.30707089  1
  C  C15  1  0.50000000  0.37723846  0.80526003  1
  C  C16  1  0.50000000  0.37796848  0.47479656  1
  C  C17  1  0.50000000  0.37734317  0.97109347  1
  C  C18  1  0.50000000  0.31509276  0.53084662  1
  C  C19  1  0.50000000  0.31561716  0.69505203  1
  C  C20  1  0.50000000  0.31535540  0.86082195  1
  C  C21  1  0.50000000  0.34582429  0.55672179  1
  C  C22  1  0.50000000  0.34635844  0.72231046  1
  C  C23  1  0.50000000  0.34618426  0.88819245  1
  C  C24  1  0.50000000  0.40774723  0.11034853  1
  C  C25  1  0.50000000  0.40776480  0.61208351  1
  C  C26  1  0.50000000  0.40747673  0.27833407  1
  C  C27  1  0.50000000  0.40786864  0.77764071  1
  C  C28  1  0.50000000  0.40767598  0.44654155  1
  C  C29  1  0.50000000  0.40783964  0.94314390  1
  C  C30  1  0.50000000  0.43743488  0.13924981  1
  C  C31  1  0.50000000  0.43865943  0.63958308  1
  C  C32  1  0.50000000  0.43723122  0.30700607  1
  C  C33  1  0.50000000  0.43866941  0.80506685  1
  C  C34  1  0.50000000  0.43746506  0.47477470  1
  C  C35  1  0.50000000  0.43834696  0.97110125  1
  C  C36  1  0.50000000  0.37807898  0.02504637  1
  C  C37  1  0.50000000  0.37725787  0.52875156  1
  C  C38  1  0.50000000  0.37780952  0.19258025  1
  C  C39  1  0.50000000  0.37723374  0.69458949  1
  C  C40  1  0.50000000  0.37779204  0.36066189  1
  C  C41  1  0.50000000  0.37725126  0.86043714  1
  C  C42  1  0.50000000  0.40779715  0.05324756  1
  C  C43  1  0.50000000  0.40777057  0.55667538  1
  C  C44  1  0.50000000  0.40751936  0.22141557  1
  C  C45  1  0.50000000  0.40787359  0.72216724  1
  C  C46  1  0.50000000  0.40756093  0.38940301  1
  C  C47  1  0.50000000  0.40781826  0.88773356  1
  C  C48  1  0.50000000  0.46941807  0.61225751  1
  C  C49  1  0.50000000  0.46946542  0.77744286  1
  C  C50  1  0.50000000  0.46989569  0.94290939  1
  C  C51  1  0.50000000  0.50018280  0.63995501  1
  C  C52  1  0.50000000  0.50022591  0.80471125  1
  C  C53  1  0.50000000  0.50023613  0.96829215  1
  C  C54  1  0.50000000  0.43756890  0.02500168  1
  C  C55  1  0.50000000  0.43826741  0.52869270  1
  C  C56  1  0.50000000  0.43732134  0.19283217  1
  C  C57  1  0.50000000  0.43866354  0.69472305  1
  C  C58  1  0.50000000  0.43726260  0.36057335  1
  C  C59  1  0.50000000  0.43869323  0.86019843  1
  C  C60  1  0.50000000  0.46982787  0.55683162  1
  C  C61  1  0.50000000  0.46945425  0.72236635  1
  C  C62  1  0.50000000  0.46945127  0.88751259  1
  C  C63  1  0.50000000  0.53098896  0.61314903  1
  C  C64  1  0.50000000  0.53105493  0.77744564  1
  C  C65  1  0.50000000  0.53110871  0.94202661  1
  C  C66  1  0.50000000  0.56182144  0.64027603  1
  C  C67  1  0.50000000  0.56190599  0.80457453  1
  C  C68  1  0.50000000  0.56141915  0.96860321  1
  C  C69  1  0.50000000  0.50016938  0.53145714  1
  C  C70  1  0.50000000  0.50021206  0.69512361  1
  C  C71  1  0.50000000  0.50022271  0.85988139  1
  C  C72  1  0.50000000  0.53104133  0.55778668  1
  C  C73  1  0.50000000  0.53104882  0.72239371  1
  C  C74  1  0.50000000  0.53103843  0.88667342  1
  C  C75  1  0.50000000  0.59248267  0.61280287  1
  C  C76  1  0.50000000  0.59285600  0.77750452  1
  C  C77  1  0.50000000  0.59223658  0.94254194  1
  C  C78  1  0.50000000  0.62331332  0.63967833  1
  C  C79  1  0.50000000  0.62348846  0.80484732  1
  C  C80  1  0.50000000  0.62261968  0.96922550  1
  C  C81  1  0.50000000  0.56132490  0.53115986  1
  C  C82  1  0.50000000  0.56189486  0.69524228  1
  C  C83  1  0.50000000  0.56186086  0.85953144  1
  C  C84  1  0.50000000  0.59214103  0.55718420  1
  C  C85  1  0.50000000  0.59284785  0.72230608  1
  C  C86  1  0.50000000  0.59254821  0.88693669  1
  C  C87  1  0.50000000  0.65395017  0.61175925  1
  C  C88  1  0.50000000  0.65449605  0.77754700  1
  C  C89  1  0.50000000  0.65340025  0.94345282  1
  C  C90  1  0.50000000  0.68512722  0.63824298  1
  C  C91  1  0.50000000  0.68523685  0.80520449  1
  C  C92  1  0.50000000  0.68388594  0.97111774  1
  C  C93  1  0.50000000  0.62249551  0.53044321  1
  C  C94  1  0.50000000  0.62346285  0.69490943  1
  C  C95  1  0.50000000  0.62337968  0.86005548  1
  C  C96  1  0.50000000  0.65327934  0.55621890  1
  C  C97  1  0.50000000  0.65448100  0.72219688  1
  C  C98  1  0.50000000  0.65404032  0.88792893  1
  C  C99  1  0.50000000  0.71450576  0.60881304  1
  C  C100  1  0.50000000  0.71493929  0.77652072  1
  C  C101  1  0.50000000  0.71390481  0.94493638  1
  C  C102  1  0.50000000  0.68376119  0.52856771  1
  C  C103  1  0.50000000  0.68519410  0.69447775  1
  C  C104  1  0.50000000  0.68521363  0.86143628  1
  C  C105  1  0.50000000  0.71378603  0.55473467  1
  C  C106  1  0.50000000  0.71491740  0.72312714  1
  C  C107  1  0.50000000  0.71460723  0.89085125  1
  H  H108  1  0.50000000  0.26142113  0.63156606  1
  H  H109  1  0.50000000  0.26178115  0.79630470  1
  H  H110  1  0.50000000  0.26164401  0.96329662  1
  H  H111  1  0.50000000  0.26156601  0.53671079  1
  H  H112  1  0.50000000  0.26185884  0.70338291  1
  H  H113  1  0.50000000  0.26145049  0.86851309  1
  H  H114  1  0.50000000  0.73882098  0.62764531  1
  H  H115  1  0.50000000  0.73889152  0.79647749  1
  H  H116  1  0.50000000  0.73739893  0.96638673  1
  H  H117  1  0.50000000  0.73730145  0.53334582  1
  H  H118  1  0.50000000  0.73886981  0.70316982  1
  H  H119  1  0.50000000  0.73892557  0.87201676  1
  H  H120  1  0.50000000  0.68301377  0.48636037  1
  H  H121  1  0.50000000  0.31412367  0.48883048  1
  H  H122  1  0.50000000  0.68312837  0.01332143  1
  H  H123  1  0.50000000  0.31430754  0.01111002  1
  H  H124  1  0.50000000  0.35375391  0.11962012  1
  H  H125  1  0.50000000  0.35359679  0.28758820  1
  H  H126  1  0.50000000  0.35442150  0.45407653  1
  H  H127  1  0.50000000  0.35455459  0.04582301  1
  H  H128  1  0.50000000  0.35363621  0.21198832  1
  H  H129  1  0.50000000  0.35359000  0.37993999  1
  H  H130  1  0.50000000  0.62233820  0.01140650  1
  H  H131  1  0.50000000  0.62217316  0.48824560  1
  H  H132  1  0.50000000  0.56141462  0.01080905  1
  H  H133  1  0.50000000  0.56135485  0.48895406  1
  H  H134  1  0.50000000  0.50122502  0.01034145  1
  H  H135  1  0.50000000  0.50120616  0.48941140  1
  H  H136  1  0.50000000  0.46168726  0.12014102  1
  H  H137  1  0.50000000  0.46130712  0.28741718  1
  H  H138  1  0.50000000  0.46098301  0.45396507  1
  H  H139  1  0.50000000  0.46105554  0.04588504  1
  H  H140  1  0.50000000  0.46138893  0.21247681  1
  H  H141  1  0.50000000  0.46144637  0.37984142  1
