# generated using pymatgen
data_H6C17
_symmetry_space_group_name_H-M   'P 1'
_cell_length_a   20.00000000
_cell_length_b   37.22700000
_cell_length_c   26.74726451
_cell_angle_alpha   90.00000000
_cell_angle_beta   90.00000000
_cell_angle_gamma   90.00000000
_symmetry_Int_Tables_number   1
_chemical_formula_structural   H6C17
_chemical_formula_sum   'H36 C102'
_cell_volume   19914.40831963
_cell_formula_units_Z   6
loop_
 _symmetry_equiv_pos_site_id
 _symmetry_equiv_pos_as_xyz
  1  'x, y, z'
loop_
 _atom_site_type_symbol
 _atom_site_label
 _atom_site_symmetry_multiplicity
 _atom_site_fract_x
 _atom_site_fract_y
 _atom_site_fract_z
 _atom_site_occupancy
  C  C0  1  0.50000000  0.31724159  0.56044150  1
  C  C1  1  0.50000000  0.31693764  0.88439773  1
  C  C2  1  0.50000000  0.38385458  0.56299063  1
  C  C3  1  0.50000000  0.38364961  0.88289599  1
  C  C4  1  0.50000000  0.44956359  0.56475040  1
  C  C5  1  0.50000000  0.44982325  0.88207328  1
  C  C6  1  0.50000000  0.51760661  0.22402403  1
  C  C7  1  0.50000000  0.51663038  0.55953947  1
  C  C8  1  0.50000000  0.51676993  0.88537051  1
  C  C9  1  0.50000000  0.58213424  0.22403231  1
  C  C10  1  0.50000000  0.58265234  0.55954363  1
  C  C11  1  0.50000000  0.58253160  0.88545901  1
  C  C12  1  0.50000000  0.64970897  0.56436110  1
  C  C13  1  0.50000000  0.64947671  0.88268509  1
  C  C14  1  0.50000000  0.71480322  0.56290104  1
  C  C15  1  0.50000000  0.71487177  0.88478853  1
  C  C16  1  0.50000000  0.31700891  0.61555648  1
  C  C17  1  0.50000000  0.31713755  0.93953102  1
  C  C18  1  0.50000000  0.38369239  0.61707678  1
  C  C19  1  0.50000000  0.38378113  0.93696784  1
  C  C20  1  0.50000000  0.44983029  0.61789012  1
  C  C21  1  0.50000000  0.44953578  0.93521391  1
  C  C22  1  0.50000000  0.51760117  0.27591608  1
  C  C23  1  0.50000000  0.51676607  0.61462865  1
  C  C24  1  0.50000000  0.51661522  0.94047645  1
  C  C25  1  0.50000000  0.58212253  0.27593728  1
  C  C26  1  0.50000000  0.58251948  0.61458830  1
  C  C27  1  0.50000000  0.58265056  0.94050142  1
  C  C28  1  0.50000000  0.64946621  0.61734935  1
  C  C29  1  0.50000000  0.64971428  0.93566996  1
  C  C30  1  0.50000000  0.71486547  0.61523721  1
  C  C31  1  0.50000000  0.71480586  0.93712027  1
  C  C32  1  0.50000000  0.28484957  0.64287750  1
  C  C33  1  0.50000000  0.28634309  0.96859045  1
  C  C34  1  0.50000000  0.35006396  0.64277850  1
  C  C35  1  0.50000000  0.35124398  0.96339286  1
  C  C36  1  0.50000000  0.41653797  0.64393104  1
  C  C37  1  0.50000000  0.41704920  0.96177773  1
  C  C38  1  0.50000000  0.48366118  0.64249611  1
  C  C39  1  0.50000000  0.48222671  0.96112858  1
  C  C40  1  0.50000000  0.54984716  0.30391180  1
  C  C41  1  0.50000000  0.54959532  0.64196454  1
  C  C42  1  0.50000000  0.54967784  0.97100726  1
  C  C43  1  0.50000000  0.61548325  0.64235000  1
  C  C44  1  0.50000000  0.61700295  0.96137782  1
  C  C45  1  0.50000000  0.68276383  0.64308567  1
  C  C46  1  0.50000000  0.68244798  0.96271194  1
  C  C47  1  0.50000000  0.28465203  0.69477367  1
  C  C48  1  0.50000000  0.34996486  0.69641808  1
  C  C49  1  0.50000000  0.41663602  0.69735817  1
  C  C50  1  0.50000000  0.48353253  0.69641150  1
  C  C51  1  0.50000000  0.54987074  0.02804564  1
  C  C52  1  0.50000000  0.54980131  0.35860338  1
  C  C53  1  0.50000000  0.54956225  0.69589615  1
  C  C54  1  0.50000000  0.61549688  0.69621895  1
  C  C55  1  0.50000000  0.68234334  0.69713037  1
  C  C56  1  0.50000000  0.31671024  0.72280395  1
  C  C57  1  0.50000000  0.38337173  0.72332760  1
  C  C58  1  0.50000000  0.45019313  0.72331115  1
  C  C59  1  0.50000000  0.51875068  0.06018599  1
  C  C60  1  0.50000000  0.51847401  0.38788222  1
  C  C61  1  0.50000000  0.51649632  0.72310170  1
  C  C62  1  0.50000000  0.58102680  0.06028309  1
  C  C63  1  0.50000000  0.58116342  0.38779513  1
  C  C64  1  0.50000000  0.58257223  0.72297519  1
  C  C65  1  0.50000000  0.64892085  0.72320889  1
  C  C66  1  0.50000000  0.71461827  0.72428463  1
  C  C67  1  0.50000000  0.31669851  0.77716489  1
  C  C68  1  0.50000000  0.38335971  0.77667389  1
  C  C69  1  0.50000000  0.45020310  0.77670819  1
  C  C70  1  0.50000000  0.51848944  0.11216600  1
  C  C71  1  0.50000000  0.51874302  0.43986071  1
  C  C72  1  0.50000000  0.51652452  0.77690608  1
  C  C73  1  0.50000000  0.58120045  0.11226453  1
  C  C74  1  0.50000000  0.58098849  0.43976995  1
  C  C75  1  0.50000000  0.58257405  0.77709457  1
  C  C76  1  0.50000000  0.64892974  0.77683700  1
  C  C77  1  0.50000000  0.71463451  0.77574691  1
  C  C78  1  0.50000000  0.28461455  0.80515037  1
  C  C79  1  0.50000000  0.34994145  0.80356813  1
  C  C80  1  0.50000000  0.41661200  0.80264643  1
  C  C81  1  0.50000000  0.48357523  0.80357448  1
  C  C82  1  0.50000000  0.54982461  0.14140038  1
  C  C83  1  0.50000000  0.54985257  0.47201956  1
  C  C84  1  0.50000000  0.54956309  0.80419523  1
  C  C85  1  0.50000000  0.61550455  0.80383250  1
  C  C86  1  0.50000000  0.68235726  0.80290448  1
  C  C87  1  0.50000000  0.28648273  0.53133505  1
  C  C88  1  0.50000000  0.28478627  0.85705709  1
  C  C89  1  0.50000000  0.35133450  0.53656307  1
  C  C90  1  0.50000000  0.35001508  0.85719944  1
  C  C91  1  0.50000000  0.41710713  0.53814330  1
  C  C92  1  0.50000000  0.41651016  0.85606043  1
  C  C93  1  0.50000000  0.48224926  0.53885065  1
  C  C94  1  0.50000000  0.48366674  0.85748094  1
  C  C95  1  0.50000000  0.54986226  0.19606660  1
  C  C96  1  0.50000000  0.54968838  0.52901974  1
  C  C97  1  0.50000000  0.54960043  0.85808208  1
  C  C98  1  0.50000000  0.61700511  0.53864044  1
  C  C99  1  0.50000000  0.61549292  0.85770088  1
  C  C100  1  0.50000000  0.68244437  0.53733310  1
  C  C101  1  0.50000000  0.68277466  0.85694775  1
  H  H102  1  0.50000000  0.74031073  0.54252063  1
  H  H103  1  0.50000000  0.74079012  0.86566602  1
  H  H104  1  0.50000000  0.74076874  0.63438576  1
  H  H105  1  0.50000000  0.74033193  0.95744072  1
  H  H106  1  0.50000000  0.25911861  0.62311113  1
  H  H107  1  0.50000000  0.25916311  0.95313267  1
  H  H108  1  0.50000000  0.25864573  0.71375051  1
  H  H109  1  0.50000000  0.74039345  0.70482119  1
  H  H110  1  0.50000000  0.74042301  0.79520124  1
  H  H111  1  0.50000000  0.25865085  0.78603984  1
  H  H112  1  0.50000000  0.25927327  0.54666210  1
  H  H113  1  0.50000000  0.25909488  0.87692538  1
  H  H114  1  0.50000000  0.49164944  0.20485264  1
  H  H115  1  0.50000000  0.60815083  0.20495813  1
  H  H116  1  0.50000000  0.49162783  0.29503970  1
  H  H117  1  0.50000000  0.60814150  0.29499702  1
  H  H118  1  0.50000000  0.28865485  0.00946933  1
  H  H119  1  0.50000000  0.35207235  0.00441458  1
  H  H120  1  0.50000000  0.41766188  0.00277552  1
  H  H121  1  0.50000000  0.47827910  0.00065268  1
  H  H122  1  0.50000000  0.62084871  0.00090026  1
  H  H123  1  0.50000000  0.68169481  0.00372824  1
  H  H124  1  0.50000000  0.49153618  0.04679770  1
  H  H125  1  0.50000000  0.49200413  0.37007230  1
  H  H126  1  0.50000000  0.60836446  0.04729709  1
  H  H127  1  0.50000000  0.60761490  0.36987888  1
  H  H128  1  0.50000000  0.49205261  0.13006902  1
  H  H129  1  0.50000000  0.49152400  0.45321303  1
  H  H130  1  0.50000000  0.60761292  0.13028835  1
  H  H131  1  0.50000000  0.60833589  0.45272327  1
  H  H132  1  0.50000000  0.28888536  0.49047819  1
  H  H133  1  0.50000000  0.35216406  0.49554480  1
  H  H134  1  0.50000000  0.41774874  0.49714066  1
  H  H135  1  0.50000000  0.47827172  0.49933059  1
  H  H136  1  0.50000000  0.62082598  0.49910101  1
  H  H137  1  0.50000000  0.68167061  0.49632711  1
