# generated using pymatgen
data_H3C10
_symmetry_space_group_name_H-M   'P 1'
_cell_length_a   10.00000000
_cell_length_b   41.10890000
_cell_length_c   26.00684086
_cell_angle_alpha   90.00000000
_cell_angle_beta   90.00000000
_cell_angle_gamma   90.00000000
_symmetry_Int_Tables_number   1
_chemical_formula_structural   H3C10
_chemical_formula_sum   'H36 C120'
_cell_volume   10691.12620400
_cell_formula_units_Z   12
loop_
 _symmetry_equiv_pos_site_id
 _symmetry_equiv_pos_as_xyz
  1  'x, y, z'
loop_
 _atom_site_type_symbol
 _atom_site_label
 _atom_site_symmetry_multiplicity
 _atom_site_fract_x
 _atom_site_fract_y
 _atom_site_fract_z
 _atom_site_occupancy
  C  C0  1  0.50000000  0.28910900  0.63867164  1
  C  C1  1  0.50000000  0.29023151  0.97084845  1
  C  C2  1  0.50000000  0.34954240  0.63992001  1
  C  C3  1  0.50000000  0.35018613  0.96928118  1
  C  C4  1  0.50000000  0.40961043  0.64031971  1
  C  C5  1  0.50000000  0.40997760  0.96880154  1
  C  C6  1  0.50000000  0.46963256  0.64040745  1
  C  C7  1  0.50000000  0.46990416  0.96851340  1
  C  C8  1  0.50000000  0.52988332  0.64006797  1
  C  C9  1  0.50000000  0.52976888  0.96832449  1
  C  C10  1  0.50000000  0.59064928  0.30729938  1
  C  C11  1  0.50000000  0.59004336  0.63970045  1
  C  C12  1  0.50000000  0.59032606  0.97099451  1
  C  C13  1  0.50000000  0.64880901  0.30709356  1
  C  C14  1  0.50000000  0.65012424  0.63953658  1
  C  C15  1  0.50000000  0.64998366  0.97113586  1
  C  C16  1  0.50000000  0.71061727  0.63919110  1
  C  C17  1  0.50000000  0.71078402  0.96897357  1
  C  C18  1  0.50000000  0.28908637  0.69480163  1
  C  C19  1  0.50000000  0.34943481  0.69509528  1
  C  C20  1  0.50000000  0.40952909  0.69525176  1
  C  C21  1  0.50000000  0.46966548  0.69538987  1
  C  C22  1  0.50000000  0.52994337  0.69523934  1
  C  C23  1  0.50000000  0.59104138  0.02484522  1
  C  C24  1  0.50000000  0.59078055  0.36088024  1
  C  C25  1  0.50000000  0.59010135  0.69478734  1
  C  C26  1  0.50000000  0.64917745  0.02509460  1
  C  C27  1  0.50000000  0.64889927  0.36064449  1
  C  C28  1  0.50000000  0.65011981  0.69466034  1
  C  C29  1  0.50000000  0.71034018  0.69507370  1
  C  C30  1  0.50000000  0.26000226  0.72337456  1
  C  C31  1  0.50000000  0.31912774  0.72240162  1
  C  C32  1  0.50000000  0.37934315  0.72243067  1
  C  C33  1  0.50000000  0.43960696  0.72252324  1
  C  C34  1  0.50000000  0.49983712  0.72254690  1
  C  C35  1  0.50000000  0.55998214  0.72247306  1
  C  C36  1  0.50000000  0.62007787  0.05321647  1
  C  C37  1  0.50000000  0.61989411  0.38955731  1
  C  C38  1  0.50000000  0.62017555  0.72225582  1
  C  C39  1  0.50000000  0.68031113  0.72238201  1
  C  C40  1  0.50000000  0.73950936  0.72333346  1
  C  C41  1  0.50000000  0.26000309  0.77669994  1
  C  C42  1  0.50000000  0.31913311  0.77766968  1
  C  C43  1  0.50000000  0.37934749  0.77762549  1
  C  C44  1  0.50000000  0.43961140  0.77750082  1
  C  C45  1  0.50000000  0.49984301  0.77746737  1
  C  C46  1  0.50000000  0.55999158  0.77752493  1
  C  C47  1  0.50000000  0.61992452  0.11035792  1
  C  C48  1  0.50000000  0.62004288  0.44670479  1
  C  C49  1  0.50000000  0.62018855  0.77771942  1
  C  C50  1  0.50000000  0.68033478  0.77758728  1
  C  C51  1  0.50000000  0.73954546  0.77648194  1
  C  C52  1  0.50000000  0.28908997  0.80527217  1
  C  C53  1  0.50000000  0.34944380  0.80497408  1
  C  C54  1  0.50000000  0.40953892  0.80478555  1
  C  C55  1  0.50000000  0.46967504  0.80462483  1
  C  C56  1  0.50000000  0.52995606  0.80476628  1
  C  C57  1  0.50000000  0.59080713  0.13902043  1
  C  C58  1  0.50000000  0.59101221  0.47509647  1
  C  C59  1  0.50000000  0.59011917  0.80519521  1
  C  C60  1  0.50000000  0.64892772  0.13928465  1
  C  C61  1  0.50000000  0.64914866  0.47486015  1
  C  C62  1  0.50000000  0.65014091  0.80530906  1
  C  C63  1  0.50000000  0.71038948  0.80487049  1
  C  C64  1  0.50000000  0.29016641  0.52925189  1
  C  C65  1  0.50000000  0.28912773  0.86141112  1
  C  C66  1  0.50000000  0.35012492  0.53077813  1
  C  C67  1  0.50000000  0.34956298  0.86015107  1
  C  C68  1  0.50000000  0.40991980  0.53123560  1
  C  C69  1  0.50000000  0.40962934  0.85971176  1
  C  C70  1  0.50000000  0.46986650  0.53149769  1
  C  C71  1  0.50000000  0.46965255  0.85960269  1
  C  C72  1  0.50000000  0.52973169  0.53168802  1
  C  C73  1  0.50000000  0.52990139  0.85994257  1
  C  C74  1  0.50000000  0.59066249  0.19260078  1
  C  C75  1  0.50000000  0.59028353  0.52896133  1
  C  C76  1  0.50000000  0.59005879  0.86028618  1
  C  C77  1  0.50000000  0.64882687  0.19283566  1
  C  C78  1  0.50000000  0.64995123  0.52881557  1
  C  C79  1  0.50000000  0.65014843  0.86042396  1
  C  C80  1  0.50000000  0.71077106  0.53103096  1
  C  C81  1  0.50000000  0.71064888  0.86079955  1
  C  C82  1  0.50000000  0.26085072  0.55557643  1
  C  C83  1  0.50000000  0.26028852  0.89057385  1
  C  C84  1  0.50000000  0.32005312  0.55663882  1
  C  C85  1  0.50000000  0.31952888  0.88797666  1
  C  C86  1  0.50000000  0.37989067  0.55738273  1
  C  C87  1  0.50000000  0.37961728  0.88706615  1
  C  C88  1  0.50000000  0.43979185  0.55757142  1
  C  C89  1  0.50000000  0.43974719  0.88685154  1
  C  C90  1  0.50000000  0.49959411  0.55802202  1
  C  C91  1  0.50000000  0.49979534  0.88673944  1
  C  C92  1  0.50000000  0.55943453  0.55708297  1
  C  C93  1  0.50000000  0.55993211  0.88761606  1
  C  C94  1  0.50000000  0.61969763  0.22147627  1
  C  C95  1  0.50000000  0.62016347  0.55683277  1
  C  C96  1  0.50000000  0.62024019  0.88776032  1
  C  C97  1  0.50000000  0.68071221  0.55686023  1
  C  C98  1  0.50000000  0.68051954  0.88813212  1
  C  C99  1  0.50000000  0.74004291  0.55791706  1
  C  C100  1  0.50000000  0.74001227  0.88862224  1
  C  C101  1  0.50000000  0.26025569  0.60954507  1
  C  C102  1  0.50000000  0.26091373  0.94453749  1
  C  C103  1  0.50000000  0.31950416  0.61210449  1
  C  C104  1  0.50000000  0.32010545  0.94344279  1
  C  C105  1  0.50000000  0.37958777  0.61298928  1
  C  C106  1  0.50000000  0.37994284  0.94266866  1
  C  C107  1  0.50000000  0.43972187  0.61315864  1
  C  C108  1  0.50000000  0.43983415  0.94243172  1
  C  C109  1  0.50000000  0.49977565  0.61327058  1
  C  C110  1  0.50000000  0.49963101  0.94198758  1
  C  C111  1  0.50000000  0.55990791  0.61239306  1
  C  C112  1  0.50000000  0.55947502  0.94292361  1
  C  C113  1  0.50000000  0.61968767  0.27844147  1
  C  C114  1  0.50000000  0.62021242  0.61220177  1
  C  C115  1  0.50000000  0.62019405  0.94312407  1
  C  C116  1  0.50000000  0.68049085  0.61180478  1
  C  C117  1  0.50000000  0.68075082  0.94307845  1
  C  C118  1  0.50000000  0.73998808  0.61138767  1
  C  C119  1  0.50000000  0.74006815  0.94211365  1
  H  H120  1  0.50000000  0.23656901  0.70345303  1
  H  H121  1  0.50000000  0.76293193  0.70343279  1
  H  H122  1  0.50000000  0.23656394  0.79661348  1
  H  H123  1  0.50000000  0.76300615  0.79626222  1
  H  H124  1  0.50000000  0.23780390  0.53438837  1
  H  H125  1  0.50000000  0.23658240  0.87150229  1
  H  H126  1  0.50000000  0.76312329  0.53680122  1
  H  H127  1  0.50000000  0.76335274  0.86852738  1
  H  H128  1  0.50000000  0.23657584  0.62869943  1
  H  H129  1  0.50000000  0.23786884  0.96571063  1
  H  H130  1  0.50000000  0.76331377  0.63151364  1
  H  H131  1  0.50000000  0.76315392  0.96322132  1
  H  H132  1  0.50000000  0.29081505  0.01298673  1
  H  H133  1  0.50000000  0.35050514  0.01142250  1
  H  H134  1  0.50000000  0.40994521  0.01095216  1
  H  H135  1  0.50000000  0.46996426  0.01067386  1
  H  H136  1  0.50000000  0.52872036  0.01034426  1
  H  H137  1  0.50000000  0.56703494  0.28787110  1
  H  H138  1  0.50000000  0.67234198  0.28746290  1
  H  H139  1  0.50000000  0.71170452  0.01095607  1
  H  H140  1  0.50000000  0.56805507  0.04563735  1
  H  H141  1  0.50000000  0.56722335  0.38043176  1
  H  H142  1  0.50000000  0.67218041  0.04586132  1
  H  H143  1  0.50000000  0.67254053  0.37996122  1
  H  H144  1  0.50000000  0.56724365  0.11947368  1
  H  H145  1  0.50000000  0.56801370  0.45432830  1
  H  H146  1  0.50000000  0.67257748  0.11999397  1
  H  H147  1  0.50000000  0.67213673  0.45406582  1
  H  H148  1  0.50000000  0.29077029  0.48710769  1
  H  H149  1  0.50000000  0.35040594  0.48862962  1
  H  H150  1  0.50000000  0.40984820  0.48908877  1
  H  H151  1  0.50000000  0.46994274  0.48934054  1
  H  H152  1  0.50000000  0.52868907  0.48966368  1
  H  H153  1  0.50000000  0.56703753  0.21201239  1
  H  H154  1  0.50000000  0.67236768  0.21245267  1
  H  H155  1  0.50000000  0.71171333  0.48906992  1
