# generated using pymatgen
data_H17C54
_symmetry_space_group_name_H-M   'P 1'
_cell_length_a   20.00000000
_cell_length_b   40.19450000
_cell_length_c   25.99680337
_cell_angle_alpha   90.00000000
_cell_angle_beta   90.00000000
_cell_angle_gamma   90.00000000
_symmetry_Int_Tables_number   1
_chemical_formula_structural   H17C54
_chemical_formula_sum   'H34 C108'
_cell_volume   20898.57026293
_cell_formula_units_Z   2
loop_
 _symmetry_equiv_pos_site_id
 _symmetry_equiv_pos_as_xyz
  1  'x, y, z'
loop_
 _atom_site_type_symbol
 _atom_site_label
 _atom_site_symmetry_multiplicity
 _atom_site_fract_x
 _atom_site_fract_y
 _atom_site_fract_z
 _atom_site_occupancy
  C  C0  1  0.50000000  0.28554119  0.61016819  1
  C  C1  1  0.50000000  0.28542090  0.77650093  1
  C  C2  1  0.50000000  0.28588992  0.94375761  1
  C  C3  1  0.50000000  0.31510772  0.63897363  1
  C  C4  1  0.50000000  0.31516455  0.80489600  1
  C  C5  1  0.50000000  0.31588739  0.97008036  1
  C  C6  1  0.50000000  0.28589055  0.55621420  1
  C  C7  1  0.50000000  0.28546184  0.72325277  1
  C  C8  1  0.50000000  0.28552347  0.88979982  1
  C  C9  1  0.50000000  0.34615454  0.61235171  1
  C  C10  1  0.50000000  0.34602172  0.77757987  1
  C  C11  1  0.50000000  0.34629439  0.94258509  1
  C  C12  1  0.50000000  0.37702146  0.63963944  1
  C  C13  1  0.50000000  0.37700466  0.80491455  1
  C  C14  1  0.50000000  0.37706430  0.96867503  1
  C  C15  1  0.50000000  0.31587267  0.52984495  1
  C  C16  1  0.50000000  0.31523283  0.69497250  1
  C  C17  1  0.50000000  0.31505501  0.86090065  1
  C  C18  1  0.50000000  0.34631070  0.55725962  1
  C  C19  1  0.50000000  0.34605789  0.72233790  1
  C  C20  1  0.50000000  0.34612684  0.88750779  1
  C  C21  1  0.50000000  0.40765231  0.61210457  1
  C  C22  1  0.50000000  0.40764850  0.77762566  1
  C  C23  1  0.50000000  0.40739015  0.94308814  1
  C  C24  1  0.50000000  0.43949981  0.13907891  1
  C  C25  1  0.50000000  0.43857378  0.63955607  1
  C  C26  1  0.50000000  0.43940151  0.30707479  1
  C  C27  1  0.50000000  0.43853720  0.80514193  1
  C  C28  1  0.50000000  0.43959551  0.47486550  1
  C  C29  1  0.50000000  0.43889860  0.97111081  1
  C  C30  1  0.50000000  0.37706945  0.53112496  1
  C  C31  1  0.50000000  0.37703292  0.69496363  1
  C  C32  1  0.50000000  0.37699996  0.86022824  1
  C  C33  1  0.50000000  0.40738353  0.55674546  1
  C  C34  1  0.50000000  0.40765252  0.72226444  1
  C  C35  1  0.50000000  0.40764298  0.88774142  1
  C  C36  1  0.50000000  0.46926453  0.11037129  1
  C  C37  1  0.50000000  0.46927541  0.61217671  1
  C  C38  1  0.50000000  0.46912490  0.27830895  1
  C  C39  1  0.50000000  0.46926444  0.77760996  1
  C  C40  1  0.50000000  0.46931742  0.44654898  1
  C  C41  1  0.50000000  0.46934956  0.94313547  1
  C  C42  1  0.50000000  0.49894860  0.13924061  1
  C  C43  1  0.50000000  0.50002265  0.63967827  1
  C  C44  1  0.50000000  0.49888554  0.30696978  1
  C  C45  1  0.50000000  0.50003012  0.80505320  1
  C  C46  1  0.50000000  0.49906232  0.47485760  1
  C  C47  1  0.50000000  0.49981842  0.97104202  1
  C  C48  1  0.50000000  0.43960523  0.02495215  1
  C  C49  1  0.50000000  0.43888972  0.52875260  1
  C  C50  1  0.50000000  0.43940959  0.19265227  1
  C  C51  1  0.50000000  0.43853573  0.69474673  1
  C  C52  1  0.50000000  0.43946218  0.36064588  1
  C  C53  1  0.50000000  0.43858030  0.86032664  1
  C  C54  1  0.50000000  0.46934409  0.05324721  1
  C  C55  1  0.50000000  0.46931517  0.55675410  1
  C  C56  1  0.50000000  0.46913126  0.22140756  1
  C  C57  1  0.50000000  0.46926603  0.72226847  1
  C  C58  1  0.50000000  0.46922717  0.38938309  1
  C  C59  1  0.50000000  0.46928660  0.88772164  1
  C  C60  1  0.50000000  0.53086425  0.61242617  1
  C  C61  1  0.50000000  0.53084464  0.77753673  1
  C  C62  1  0.50000000  0.53129867  0.94285217  1
  C  C63  1  0.50000000  0.56155971  0.64008272  1
  C  C64  1  0.50000000  0.56162108  0.80473895  1
  C  C65  1  0.50000000  0.56162639  0.96822910  1
  C  C66  1  0.50000000  0.49910650  0.02495495  1
  C  C67  1  0.50000000  0.49977378  0.52881829  1
  C  C68  1  0.50000000  0.49890865  0.19279484  1
  C  C69  1  0.50000000  0.50003042  0.69486030  1
  C  C70  1  0.50000000  0.49892140  0.36052586  1
  C  C71  1  0.50000000  0.50002733  0.86023221  1
  C  C72  1  0.50000000  0.53125063  0.55702402  1
  C  C73  1  0.50000000  0.53083478  0.72240451  1
  C  C74  1  0.50000000  0.53089327  0.88744654  1
  C  C75  1  0.50000000  0.59243020  0.61314456  1
  C  C76  1  0.50000000  0.59255940  0.77753232  1
  C  C77  1  0.50000000  0.59243562  0.94199360  1
  C  C78  1  0.50000000  0.62320637  0.64000828  1
  C  C79  1  0.50000000  0.62328421  0.80468034  1
  C  C80  1  0.50000000  0.62260501  0.96887096  1
  C  C81  1  0.50000000  0.56156102  0.53160998  1
  C  C82  1  0.50000000  0.56158703  0.69516219  1
  C  C83  1  0.50000000  0.56159788  0.85982118  1
  C  C84  1  0.50000000  0.59236675  0.55786818  1
  C  C85  1  0.50000000  0.59253037  0.72233887  1
  C  C86  1  0.50000000  0.59249351  0.88670649  1
  C  C87  1  0.50000000  0.65381328  0.61204153  1
  C  C88  1  0.50000000  0.65428664  0.77749869  1
  C  C89  1  0.50000000  0.65338449  0.94311966  1
  C  C90  1  0.50000000  0.68500705  0.63848925  1
  C  C91  1  0.50000000  0.68508628  0.80505380  1
  C  C92  1  0.50000000  0.68385085  0.97071498  1
  C  C93  1  0.50000000  0.62249714  0.53088343  1
  C  C94  1  0.50000000  0.62322483  0.69513521  1
  C  C95  1  0.50000000  0.62328521  0.85981166  1
  C  C96  1  0.50000000  0.65330237  0.55658076  1
  C  C97  1  0.50000000  0.65423734  0.72226787  1
  C  C98  1  0.50000000  0.65392319  0.88768118  1
  C  C99  1  0.50000000  0.71443031  0.60926467  1
  C  C100  1  0.50000000  0.71479192  0.77643788  1
  C  C101  1  0.50000000  0.71385625  0.94453140  1
  C  C102  1  0.50000000  0.68378458  0.52900186  1
  C  C103  1  0.50000000  0.68499233  0.69462108  1
  C  C104  1  0.50000000  0.68512177  0.86120819  1
  C  C105  1  0.50000000  0.71378237  0.55522493  1
  C  C106  1  0.50000000  0.71474076  0.72309818  1
  C  C107  1  0.50000000  0.71453187  0.89048234  1
  H  H108  1  0.50000000  0.26143888  0.62967616  1
  H  H109  1  0.50000000  0.26146087  0.79639186  1
  H  H110  1  0.50000000  0.26230583  0.96491558  1
  H  H111  1  0.50000000  0.26227779  0.53513334  1
  H  H112  1  0.50000000  0.26156445  0.70318528  1
  H  H113  1  0.50000000  0.26138743  0.87039173  1
  H  H114  1  0.50000000  0.73869912  0.62830186  1
  H  H115  1  0.50000000  0.73877808  0.79630895  1
  H  H116  1  0.50000000  0.73739898  0.96581379  1
  H  H117  1  0.50000000  0.73734418  0.53399487  1
  H  H118  1  0.50000000  0.73866719  0.70305305  1
  H  H119  1  0.50000000  0.73881194  0.87148848  1
  H  H120  1  0.50000000  0.68307653  0.48681824  1
  H  H121  1  0.50000000  0.31655382  0.48769298  1
  H  H122  1  0.50000000  0.68312240  0.01287894  1
  H  H123  1  0.50000000  0.31660906  0.01223905  1
  H  H124  1  0.50000000  0.62228389  0.01104116  1
  H  H125  1  0.50000000  0.62202412  0.48870951  1
  H  H126  1  0.50000000  0.37604299  0.01068243  1
  H  H127  1  0.50000000  0.37612867  0.48908978  1
  H  H128  1  0.50000000  0.41530828  0.11979296  1
  H  H129  1  0.50000000  0.41526885  0.28758528  1
  H  H130  1  0.50000000  0.41604160  0.45413595  1
  H  H131  1  0.50000000  0.41604965  0.04567107  1
  H  H132  1  0.50000000  0.41527320  0.21212403  1
  H  H133  1  0.50000000  0.41528093  0.37999115  1
  H  H134  1  0.50000000  0.56268767  0.01025967  1
  H  H135  1  0.50000000  0.56264440  0.48959892  1
  H  H136  1  0.50000000  0.52314737  0.12000641  1
  H  H137  1  0.50000000  0.52297823  0.28740276  1
  H  H138  1  0.50000000  0.52262549  0.45414269  1
  H  H139  1  0.50000000  0.52269592  0.04559908  1
  H  H140  1  0.50000000  0.52299300  0.21238439  1
  H  H141  1  0.50000000  0.52310084  0.37983473  1
