# generated using pymatgen
data_HC3
_symmetry_space_group_name_H-M   'P 1'
_cell_length_a   20.00000000
_cell_length_b   37.22700000
_cell_length_c   25.95704428
_cell_angle_alpha   90.00000000
_cell_angle_beta   90.00000000
_cell_angle_gamma   90.00000000
_symmetry_Int_Tables_number   1
_chemical_formula_structural   HC3
_chemical_formula_sum   'H34 C102'
_cell_volume   19326.05775162
_cell_formula_units_Z   34
loop_
 _symmetry_equiv_pos_site_id
 _symmetry_equiv_pos_as_xyz
  1  'x, y, z'
loop_
 _atom_site_type_symbol
 _atom_site_label
 _atom_site_symmetry_multiplicity
 _atom_site_fract_x
 _atom_site_fract_y
 _atom_site_fract_z
 _atom_site_occupancy
  C  C0  1  0.50000000  0.31719693  0.55445018  1
  C  C1  1  0.50000000  0.31678037  0.88883949  1
  C  C2  1  0.50000000  0.38388733  0.55679327  1
  C  C3  1  0.50000000  0.38349222  0.88749604  1
  C  C4  1  0.50000000  0.44996242  0.55734010  1
  C  C5  1  0.50000000  0.44976150  0.88709859  1
  C  C6  1  0.50000000  0.51592294  0.55768329  1
  C  C7  1  0.50000000  0.51599273  0.88694618  1
  C  C8  1  0.50000000  0.58206655  0.55658120  1
  C  C9  1  0.50000000  0.58247373  0.88773602  1
  C  C10  1  0.50000000  0.64976876  0.22150014  1
  C  C11  1  0.50000000  0.64898457  0.55691519  1
  C  C12  1  0.50000000  0.64909284  0.88786427  1
  C  C13  1  0.50000000  0.71498175  0.55766178  1
  C  C14  1  0.50000000  0.71488483  0.88948481  1
  C  C15  1  0.50000000  0.31677045  0.61127148  1
  C  C16  1  0.50000000  0.31722170  0.94565458  1
  C  C17  1  0.50000000  0.38346483  0.61256411  1
  C  C18  1  0.50000000  0.38392733  0.94326684  1
  C  C19  1  0.50000000  0.44972560  0.61292539  1
  C  C20  1  0.50000000  0.45000803  0.94268114  1
  C  C21  1  0.50000000  0.51596257  0.61303858  1
  C  C22  1  0.50000000  0.51596388  0.94229889  1
  C  C23  1  0.50000000  0.58245527  0.61221357  1
  C  C24  1  0.50000000  0.58209525  0.94336113  1
  C  C25  1  0.50000000  0.64976514  0.27843708  1
  C  C26  1  0.50000000  0.64907713  0.61206983  1
  C  C27  1  0.50000000  0.64899104  0.94301603  1
  C  C28  1  0.50000000  0.71487083  0.61044861  1
  C  C29  1  0.50000000  0.71498705  0.94226301  1
  C  C30  1  0.50000000  0.28460214  0.63938104  1
  C  C31  1  0.50000000  0.28654326  0.97574286  1
  C  C32  1  0.50000000  0.34983866  0.63925570  1
  C  C33  1  0.50000000  0.35131855  0.97032615  1
  C  C34  1  0.50000000  0.41626159  0.63998049  1
  C  C35  1  0.50000000  0.41711183  0.96929773  1
  C  C36  1  0.50000000  0.48270379  0.64023359  1
  C  C37  1  0.50000000  0.48323274  0.96885724  1
  C  C38  1  0.50000000  0.54923527  0.63989963  1
  C  C39  1  0.50000000  0.54935152  0.96870347  1
  C  C40  1  0.50000000  0.61768884  0.30724896  1
  C  C41  1  0.50000000  0.61549619  0.63969815  1
  C  C42  1  0.50000000  0.61625292  0.97141547  1
  C  C43  1  0.50000000  0.68194345  0.30706096  1
  C  C44  1  0.50000000  0.68210451  0.63917350  1
  C  C45  1  0.50000000  0.68219995  0.97074635  1
  C  C46  1  0.50000000  0.28430302  0.69295011  1
  C  C47  1  0.50000000  0.34958971  0.69466150  1
  C  C48  1  0.50000000  0.41608032  0.69527472  1
  C  C49  1  0.50000000  0.48266378  0.69538520  1
  C  C50  1  0.50000000  0.54920082  0.69505944  1
  C  C51  1  0.50000000  0.61769790  0.02520936  1
  C  C52  1  0.50000000  0.61783430  0.36088551  1
  C  C53  1  0.50000000  0.61552329  0.69468048  1
  C  C54  1  0.50000000  0.68217104  0.02499368  1
  C  C55  1  0.50000000  0.68203096  0.36064181  1
  C  C56  1  0.50000000  0.68205875  0.69481278  1
  C  C57  1  0.50000000  0.31626247  0.72195251  1
  C  C58  1  0.50000000  0.38291575  0.72241783  1
  C  C59  1  0.50000000  0.44937062  0.72256983  1
  C  C60  1  0.50000000  0.51586581  0.72246334  1
  C  C61  1  0.50000000  0.58231806  0.72235119  1
  C  C62  1  0.50000000  0.65018455  0.05329900  1
  C  C63  1  0.50000000  0.64999608  0.38952623  1
  C  C64  1  0.50000000  0.64887995  0.72229876  1
  C  C65  1  0.50000000  0.71439596  0.72342753  1
  C  C66  1  0.50000000  0.31626197  0.77816013  1
  C  C67  1  0.50000000  0.38292265  0.77767134  1
  C  C68  1  0.50000000  0.44938230  0.77747460  1
  C  C69  1  0.50000000  0.51587664  0.77750870  1
  C  C70  1  0.50000000  0.58232558  0.77759750  1
  C  C71  1  0.50000000  0.65000663  0.11042693  1
  C  C72  1  0.50000000  0.65016841  0.44664952  1
  C  C73  1  0.50000000  0.64888594  0.77763632  1
  C  C74  1  0.50000000  0.71440070  0.77646868  1
  C  C75  1  0.50000000  0.28430663  0.80718885  1
  C  C76  1  0.50000000  0.34959708  0.80544695  1
  C  C77  1  0.50000000  0.41610089  0.80479038  1
  C  C78  1  0.50000000  0.48268681  0.80462535  1
  C  C79  1  0.50000000  0.54921610  0.80489924  1
  C  C80  1  0.50000000  0.61784136  0.13905913  1
  C  C81  1  0.50000000  0.61768321  0.47473627  1
  C  C82  1  0.50000000  0.61553214  0.80525879  1
  C  C83  1  0.50000000  0.68204855  0.13930313  1
  C  C84  1  0.50000000  0.68216627  0.47493786  1
  C  C85  1  0.50000000  0.68206856  0.80510730  1
  C  C86  1  0.50000000  0.28650516  0.52440297  1
  C  C87  1  0.50000000  0.28461301  0.86075223  1
  C  C88  1  0.50000000  0.35128422  0.52974653  1
  C  C89  1  0.50000000  0.34985285  0.86083210  1
  C  C90  1  0.50000000  0.41706108  0.53074373  1
  C  C91  1  0.50000000  0.41628428  0.86007613  1
  C  C92  1  0.50000000  0.48318375  0.53115335  1
  C  C93  1  0.50000000  0.48273378  0.85977022  1
  C  C94  1  0.50000000  0.54932410  0.53127235  1
  C  C95  1  0.50000000  0.54925869  0.86005600  1
  C  C96  1  0.50000000  0.61769624  0.19268857  1
  C  C97  1  0.50000000  0.61623318  0.52853059  1
  C  C98  1  0.50000000  0.61550793  0.86024833  1
  C  C99  1  0.50000000  0.68195499  0.19289372  1
  C  C100  1  0.50000000  0.68218910  0.52918732  1
  C  C101  1  0.50000000  0.68211895  0.86075069  1
  H  H102  1  0.50000000  0.74038068  0.53630729  1
  H  H103  1  0.50000000  0.74059981  0.86918067  1
  H  H104  1  0.50000000  0.74057063  0.63078893  1
  H  H105  1  0.50000000  0.74039660  0.96359591  1
  H  H106  1  0.50000000  0.25885616  0.61902356  1
  H  H107  1  0.50000000  0.25933918  0.95994486  1
  H  H108  1  0.50000000  0.25821941  0.71232108  1
  H  H109  1  0.50000000  0.74024657  0.70353859  1
  H  H110  1  0.50000000  0.74026099  0.79632863  1
  H  H111  1  0.50000000  0.25821423  0.78783274  1
  H  H112  1  0.50000000  0.25932144  0.54024993  1
  H  H113  1  0.50000000  0.25884952  0.88109947  1
  H  H114  1  0.50000000  0.28908739  0.01781940  1
  H  H115  1  0.50000000  0.35209898  0.01256486  1
  H  H116  1  0.50000000  0.41721069  0.01153962  1
  H  H117  1  0.50000000  0.48324574  0.01108979  1
  H  H118  1  0.50000000  0.54821818  0.01081112  1
  H  H119  1  0.50000000  0.59159650  0.28784125  1
  H  H120  1  0.50000000  0.70798958  0.28758545  1
  H  H121  1  0.50000000  0.59239317  0.04637591  1
  H  H122  1  0.50000000  0.59178762  0.38037497  1
  H  H123  1  0.50000000  0.70823843  0.04447034  1
  H  H124  1  0.50000000  0.70814188  0.37989795  1
  H  H125  1  0.50000000  0.59177725  0.11961247  1
  H  H126  1  0.50000000  0.59236932  0.45358979  1
  H  H127  1  0.50000000  0.70812533  0.11994750  1
  H  H128  1  0.50000000  0.70822403  0.45543426  1
  H  H129  1  0.50000000  0.28902067  0.48233434  1
  H  H130  1  0.50000000  0.35205620  0.48750306  1
  H  H131  1  0.50000000  0.41713848  0.48850432  1
  H  H132  1  0.50000000  0.48318666  0.48892848  1
  H  H133  1  0.50000000  0.54817647  0.48915162  1
  H  H134  1  0.50000000  0.59159641  0.21207386  1
  H  H135  1  0.50000000  0.70795799  0.21248853  1
