# generated using pymatgen
data_H19C60
_symmetry_space_group_name_H-M   'P 1'
_cell_length_a   10.00000000
_cell_length_b   41.10890000
_cell_length_c   26.75668764
_cell_angle_alpha   90.00000000
_cell_angle_beta   90.00000000
_cell_angle_gamma   90.00000000
_symmetry_Int_Tables_number   1
_chemical_formula_structural   H19C60
_chemical_formula_sum   'H38 C120'
_cell_volume   10999.37996391
_cell_formula_units_Z   2
loop_
 _symmetry_equiv_pos_site_id
 _symmetry_equiv_pos_as_xyz
  1  'x, y, z'
loop_
 _atom_site_type_symbol
 _atom_site_label
 _atom_site_symmetry_multiplicity
 _atom_site_fract_x
 _atom_site_fract_y
 _atom_site_fract_z
 _atom_site_occupancy
  C  C0  1  0.50000000  0.28918618  0.64170963  1
  C  C1  1  0.50000000  0.29024641  0.96456921  1
  C  C2  1  0.50000000  0.34961479  0.64296255  1
  C  C3  1  0.50000000  0.35019399  0.96319278  1
  C  C4  1  0.50000000  0.40965856  0.64350723  1
  C  C5  1  0.50000000  0.41000291  0.96253866  1
  C  C6  1  0.50000000  0.46970321  0.64409258  1
  C  C7  1  0.50000000  0.46983494  0.96156812  1
  C  C8  1  0.50000000  0.53039444  0.64253798  1
  C  C9  1  0.50000000  0.52891404  0.96112336  1
  C  C10  1  0.50000000  0.58957320  0.30393214  1
  C  C11  1  0.50000000  0.59011302  0.64182344  1
  C  C12  1  0.50000000  0.59005111  0.97092747  1
  C  C13  1  0.50000000  0.64986116  0.64226564  1
  C  C14  1  0.50000000  0.65119338  0.96144803  1
  C  C15  1  0.50000000  0.71086224  0.64305705  1
  C  C16  1  0.50000000  0.71046555  0.96268235  1
  C  C17  1  0.50000000  0.28916819  0.69628626  1
  C  C18  1  0.50000000  0.34950593  0.69661395  1
  C  C19  1  0.50000000  0.40962442  0.69687496  1
  C  C20  1  0.50000000  0.46989687  0.69734359  1
  C  C21  1  0.50000000  0.53039376  0.69636033  1
  C  C22  1  0.50000000  0.58994279  0.02796404  1
  C  C23  1  0.50000000  0.58964355  0.35868178  1
  C  C24  1  0.50000000  0.59018068  0.69586777  1
  C  C25  1  0.50000000  0.64994350  0.69618234  1
  C  C26  1  0.50000000  0.71050632  0.69712005  1
  C  C27  1  0.50000000  0.26012380  0.72409517  1
  C  C28  1  0.50000000  0.31921554  0.72313254  1
  C  C29  1  0.50000000  0.37942951  0.72319951  1
  C  C30  1  0.50000000  0.43972585  0.72337692  1
  C  C31  1  0.50000000  0.50026530  0.72324351  1
  C  C32  1  0.50000000  0.56168699  0.05994554  1
  C  C33  1  0.50000000  0.56132680  0.38805935  1
  C  C34  1  0.50000000  0.56031310  0.72305469  1
  C  C35  1  0.50000000  0.61803534  0.06025941  1
  C  C36  1  0.50000000  0.61809540  0.38776664  1
  C  C37  1  0.50000000  0.62012167  0.72295304  1
  C  C38  1  0.50000000  0.68018606  0.72316171  1
  C  C39  1  0.50000000  0.73974137  0.72425401  1
  C  C40  1  0.50000000  0.26012277  0.77589826  1
  C  C41  1  0.50000000  0.31922155  0.77685124  1
  C  C42  1  0.50000000  0.37943221  0.77679686  1
  C  C43  1  0.50000000  0.43972717  0.77662627  1
  C  C44  1  0.50000000  0.50026903  0.77677330  1
  C  C45  1  0.50000000  0.56133978  0.11194105  1
  C  C46  1  0.50000000  0.56167449  0.44005819  1
  C  C47  1  0.50000000  0.56033769  0.77691646  1
  C  C48  1  0.50000000  0.61811857  0.11225225  1
  C  C49  1  0.50000000  0.61800569  0.43976260  1
  C  C50  1  0.50000000  0.62011404  0.77703085  1
  C  C51  1  0.50000000  0.68017877  0.77683693  1
  C  C52  1  0.50000000  0.73973815  0.77575455  1
  C  C53  1  0.50000000  0.28917236  0.80370567  1
  C  C54  1  0.50000000  0.34951372  0.80337581  1
  C  C55  1  0.50000000  0.40962938  0.80312997  1
  C  C56  1  0.50000000  0.46989900  0.80266260  1
  C  C57  1  0.50000000  0.53040288  0.80364604  1
  C  C58  1  0.50000000  0.58965840  0.14131279  1
  C  C59  1  0.50000000  0.58991755  0.47206369  1
  C  C60  1  0.50000000  0.59019654  0.80419227  1
  C  C61  1  0.50000000  0.64993628  0.80378259  1
  C  C62  1  0.50000000  0.71049324  0.80287132  1
  C  C63  1  0.50000000  0.29027046  0.53537514  1
  C  C64  1  0.50000000  0.28917921  0.85827489  1
  C  C65  1  0.50000000  0.35020911  0.53679147  1
  C  C66  1  0.50000000  0.34961099  0.85701925  1
  C  C67  1  0.50000000  0.41001158  0.53747112  1
  C  C68  1  0.50000000  0.40965401  0.85650027  1
  C  C69  1  0.50000000  0.46983343  0.53844435  1
  C  C70  1  0.50000000  0.46970097  0.85591475  1
  C  C71  1  0.50000000  0.52890706  0.53889607  1
  C  C72  1  0.50000000  0.53040308  0.85748446  1
  C  C73  1  0.50000000  0.58958041  0.19605814  1
  C  C74  1  0.50000000  0.59003146  0.52911336  1
  C  C75  1  0.50000000  0.59012358  0.85821787  1
  C  C76  1  0.50000000  0.65117260  0.53858648  1
  C  C77  1  0.50000000  0.64985962  0.85772570  1
  C  C78  1  0.50000000  0.71044770  0.53732187  1
  C  C79  1  0.50000000  0.71086116  0.85693737  1
  C  C80  1  0.50000000  0.26095321  0.56090378  1
  C  C81  1  0.50000000  0.26031859  0.88655779  1
  C  C82  1  0.50000000  0.32016320  0.56198130  1
  C  C83  1  0.50000000  0.31960051  0.88406856  1
  C  C84  1  0.50000000  0.37994748  0.56273572  1
  C  C85  1  0.50000000  0.37964801  0.88318052  1
  C  C86  1  0.50000000  0.43975004  0.56339123  1
  C  C87  1  0.50000000  0.43975819  0.88262071  1
  C  C88  1  0.50000000  0.49933155  0.56484149  1
  C  C89  1  0.50000000  0.49974252  0.88200719  1
  C  C90  1  0.50000000  0.56038455  0.22403176  1
  C  C91  1  0.50000000  0.56012004  0.55950966  1
  C  C92  1  0.50000000  0.56038078  0.88543927  1
  C  C93  1  0.50000000  0.61876137  0.22405387  1
  C  C94  1  0.50000000  0.62000402  0.55944376  1
  C  C95  1  0.50000000  0.61998157  0.88553346  1
  C  C96  1  0.50000000  0.68078296  0.56435742  1
  C  C97  1  0.50000000  0.68063827  0.88265400  1
  C  C98  1  0.50000000  0.73978079  0.56280307  1
  C  C99  1  0.50000000  0.73991662  0.88481856  1
  C  C100  1  0.50000000  0.26033927  0.61339497  1
  C  C101  1  0.50000000  0.26092446  0.93905313  1
  C  C102  1  0.50000000  0.31960730  0.61591504  1
  C  C103  1  0.50000000  0.32015228  0.93799564  1
  C  C104  1  0.50000000  0.37965648  0.61681382  1
  C  C105  1  0.50000000  0.37993768  0.93726105  1
  C  C106  1  0.50000000  0.43976190  0.61739196  1
  C  C107  1  0.50000000  0.43974600  0.93662459  1
  C  C108  1  0.50000000  0.49973966  0.61800339  1
  C  C109  1  0.50000000  0.49933158  0.93517374  1
  C  C110  1  0.50000000  0.56038089  0.27594665  1
  C  C111  1  0.50000000  0.56036775  0.61459073  1
  C  C112  1  0.50000000  0.56013242  0.94052789  1
  C  C113  1  0.50000000  0.61875916  0.27594542  1
  C  C114  1  0.50000000  0.61996391  0.61449276  1
  C  C115  1  0.50000000  0.62002656  0.94058617  1
  C  C116  1  0.50000000  0.68063622  0.61733811  1
  C  C117  1  0.50000000  0.68079495  0.93564779  1
  C  C118  1  0.50000000  0.73991691  0.61516728  1
  C  C119  1  0.50000000  0.73979433  0.93718412  1
  H  H120  1  0.50000000  0.23661478  0.70497575  1
  H  H121  1  0.50000000  0.76315144  0.70487470  1
  H  H122  1  0.50000000  0.23660279  0.79496945  1
  H  H123  1  0.50000000  0.76312653  0.79516791  1
  H  H124  1  0.50000000  0.23800562  0.54002736  1
  H  H125  1  0.50000000  0.23665995  0.86784437  1
  H  H126  1  0.50000000  0.76291922  0.54244807  1
  H  H127  1  0.50000000  0.76347438  0.86586797  1
  H  H128  1  0.50000000  0.23666736  0.63206760  1
  H  H129  1  0.50000000  0.23796947  0.95991163  1
  H  H130  1  0.50000000  0.76347074  0.63411560  1
  H  H131  1  0.50000000  0.76294111  0.95750721  1
  H  H132  1  0.50000000  0.29077298  0.00551999  1
  H  H133  1  0.50000000  0.35051101  0.00420123  1
  H  H134  1  0.50000000  0.41019840  0.00355161  1
  H  H135  1  0.50000000  0.47021879  0.00255573  1
  H  H136  1  0.50000000  0.52508376  0.00058430  1
  H  H137  1  0.50000000  0.65477655  0.00096866  1
  H  H138  1  0.50000000  0.70967673  0.00367274  1
  H  H139  1  0.50000000  0.53703759  0.04655349  1
  H  H140  1  0.50000000  0.53727417  0.37043107  1
  H  H141  1  0.50000000  0.64272931  0.04708742  1
  H  H142  1  0.50000000  0.64203609  0.36979726  1
  H  H143  1  0.50000000  0.53729367  0.12959219  1
  H  H144  1  0.50000000  0.53702807  0.45345373  1
  H  H145  1  0.50000000  0.64205035  0.13025351  1
  H  H146  1  0.50000000  0.64269720  0.45294412  1
  H  H147  1  0.50000000  0.29081462  0.49442060  1
  H  H148  1  0.50000000  0.35052660  0.49578148  1
  H  H149  1  0.50000000  0.41022442  0.49646074  1
  H  H150  1  0.50000000  0.47021873  0.49746077  1
  H  H151  1  0.50000000  0.52505566  0.49944524  1
  H  H152  1  0.50000000  0.65477656  0.49907133  1
  H  H153  1  0.50000000  0.70963313  0.49633653  1
  H  H154  1  0.50000000  0.53685147  0.20492254  1
  H  H155  1  0.50000000  0.64229195  0.20495962  1
  H  H156  1  0.50000000  0.53684334  0.29504405  1
  H  H157  1  0.50000000  0.64229146  0.29503648  1
