# generated using pymatgen
data_H3C10
_symmetry_space_group_name_H-M   'P 1'
_cell_length_a   10.00000000
_cell_length_b   41.10890000
_cell_length_c   25.91616292
_cell_angle_alpha   90.00000000
_cell_angle_beta   90.00000000
_cell_angle_gamma   90.00000000
_symmetry_Int_Tables_number   1
_chemical_formula_structural   H3C10
_chemical_formula_sum   'H36 C120'
_cell_volume   10653.84949716
_cell_formula_units_Z   12
loop_
 _symmetry_equiv_pos_site_id
 _symmetry_equiv_pos_as_xyz
  1  'x, y, z'
loop_
 _atom_site_type_symbol
 _atom_site_label
 _atom_site_symmetry_multiplicity
 _atom_site_fract_x
 _atom_site_fract_y
 _atom_site_fract_z
 _atom_site_occupancy
  C  C0  1  0.50000000  0.28882230  0.63812310  1
  C  C1  1  0.50000000  0.29033004  0.97184904  1
  C  C2  1  0.50000000  0.34930159  0.63980417  1
  C  C3  1  0.50000000  0.35015895  0.96959978  1
  C  C4  1  0.50000000  0.40962565  0.63989191  1
  C  C5  1  0.50000000  0.40973431  0.96879523  1
  C  C6  1  0.50000000  0.47087093  0.30708914  1
  C  C7  1  0.50000000  0.46987565  0.63961588  1
  C  C8  1  0.50000000  0.47018456  0.97121447  1
  C  C9  1  0.50000000  0.52912908  0.30708914  1
  C  C10  1  0.50000000  0.53012437  0.63961588  1
  C  C11  1  0.50000000  0.52981546  0.97121447  1
  C  C12  1  0.50000000  0.59037438  0.63989190  1
  C  C13  1  0.50000000  0.59026571  0.96879523  1
  C  C14  1  0.50000000  0.65069843  0.63980417  1
  C  C15  1  0.50000000  0.64984107  0.96959978  1
  C  C16  1  0.50000000  0.71117773  0.63812310  1
  C  C17  1  0.50000000  0.70966999  0.97184904  1
  C  C18  1  0.50000000  0.28878488  0.69451908  1
  C  C19  1  0.50000000  0.34923379  0.69507806  1
  C  C20  1  0.50000000  0.40956569  0.69507345  1
  C  C21  1  0.50000000  0.47089627  0.02522100  1
  C  C22  1  0.50000000  0.47089374  0.36074261  1
  C  C23  1  0.50000000  0.46985491  0.69490031  1
  C  C24  1  0.50000000  0.52910375  0.02522100  1
  C  C25  1  0.50000000  0.52910627  0.36074261  1
  C  C26  1  0.50000000  0.53014511  0.69490031  1
  C  C27  1  0.50000000  0.59043433  0.69507345  1
  C  C28  1  0.50000000  0.65076624  0.69507806  1
  C  C29  1  0.50000000  0.71121514  0.69451909  1
  C  C30  1  0.50000000  0.25971717  0.72324695  1
  C  C31  1  0.50000000  0.31887228  0.72229248  1
  C  C32  1  0.50000000  0.37930244  0.72232145  1
  C  C33  1  0.50000000  0.43971362  0.72235250  1
  C  C34  1  0.50000000  0.50000001  0.05343570  1
  C  C35  1  0.50000000  0.50000001  0.38943472  1
  C  C36  1  0.50000000  0.50000001  0.72232092  1
  C  C37  1  0.50000000  0.56028640  0.72235250  1
  C  C38  1  0.50000000  0.62069759  0.72232145  1
  C  C39  1  0.50000000  0.68112774  0.72229248  1
  C  C40  1  0.50000000  0.74028285  0.72324695  1
  C  C41  1  0.50000000  0.25973303  0.77677405  1
  C  C42  1  0.50000000  0.31887605  0.77772732  1
  C  C43  1  0.50000000  0.37930188  0.77768019  1
  C  C44  1  0.50000000  0.43971398  0.77757723  1
  C  C45  1  0.50000000  0.50000001  0.11060761  1
  C  C46  1  0.50000000  0.50000001  0.44656470  1
  C  C47  1  0.50000000  0.50000001  0.77757884  1
  C  C48  1  0.50000000  0.56028604  0.77757723  1
  C  C49  1  0.50000000  0.62069815  0.77768019  1
  C  C50  1  0.50000000  0.68112397  0.77772732  1
  C  C51  1  0.50000000  0.74026699  0.77677405  1
  C  C52  1  0.50000000  0.28880123  0.80548457  1
  C  C53  1  0.50000000  0.34923964  0.80492175  1
  C  C54  1  0.50000000  0.40958070  0.80487077  1
  C  C55  1  0.50000000  0.47089610  0.13931503  1
  C  C56  1  0.50000000  0.47088859  0.47475591  1
  C  C57  1  0.50000000  0.46986161  0.80501918  1
  C  C58  1  0.50000000  0.52910392  0.13931503  1
  C  C59  1  0.50000000  0.52911144  0.47475591  1
  C  C60  1  0.50000000  0.53013841  0.80501918  1
  C  C61  1  0.50000000  0.59041932  0.80487078  1
  C  C62  1  0.50000000  0.65076038  0.80492176  1
  C  C63  1  0.50000000  0.71119880  0.80548457  1
  C  C64  1  0.50000000  0.29031390  0.52821464  1
  C  C65  1  0.50000000  0.28882661  0.86189255  1
  C  C66  1  0.50000000  0.35014668  0.53036168  1
  C  C67  1  0.50000000  0.34930112  0.86021054  1
  C  C68  1  0.50000000  0.40970567  0.53118166  1
  C  C69  1  0.50000000  0.40963250  0.86006727  1
  C  C70  1  0.50000000  0.47086260  0.19297064  1
  C  C71  1  0.50000000  0.47017430  0.52874599  1
  C  C72  1  0.50000000  0.46988094  0.86032129  1
  C  C73  1  0.50000000  0.52913742  0.19297065  1
  C  C74  1  0.50000000  0.52982572  0.52874599  1
  C  C75  1  0.50000000  0.53011909  0.86032129  1
  C  C76  1  0.50000000  0.59029435  0.53118166  1
  C  C77  1  0.50000000  0.59036753  0.86006728  1
  C  C78  1  0.50000000  0.64985335  0.53036168  1
  C  C79  1  0.50000000  0.65069890  0.86021054  1
  C  C80  1  0.50000000  0.70968612  0.52821464  1
  C  C81  1  0.50000000  0.71117341  0.86189255  1
  C  C82  1  0.50000000  0.26093399  0.55431268  1
  C  C83  1  0.50000000  0.26014583  0.89152513  1
  C  C84  1  0.50000000  0.32002194  0.55607695  1
  C  C85  1  0.50000000  0.31937349  0.88829210  1
  C  C86  1  0.50000000  0.37957718  0.55744139  1
  C  C87  1  0.50000000  0.37944849  0.88709440  1
  C  C88  1  0.50000000  0.43932919  0.55676140  1
  C  C89  1  0.50000000  0.43970166  0.88768424  1
  C  C90  1  0.50000000  0.50000001  0.22157281  1
  C  C91  1  0.50000000  0.50000001  0.55676650  1
  C  C92  1  0.50000000  0.50000001  0.88771915  1
  C  C93  1  0.50000000  0.56067084  0.55676140  1
  C  C94  1  0.50000000  0.56029836  0.88768424  1
  C  C95  1  0.50000000  0.62042285  0.55744139  1
  C  C96  1  0.50000000  0.62055154  0.88709440  1
  C  C97  1  0.50000000  0.67997809  0.55607695  1
  C  C98  1  0.50000000  0.68062654  0.88829210  1
  C  C99  1  0.50000000  0.73906604  0.55431268  1
  C  C100  1  0.50000000  0.73985419  0.89152514  1
  C  C101  1  0.50000000  0.26013701  0.60853149  1
  C  C102  1  0.50000000  0.26094421  0.94574379  1
  C  C103  1  0.50000000  0.31938399  0.61172842  1
  C  C104  1  0.50000000  0.32002069  0.94392859  1
  C  C105  1  0.50000000  0.37943489  0.61287855  1
  C  C106  1  0.50000000  0.37959525  0.94252158  1
  C  C107  1  0.50000000  0.43969034  0.61226482  1
  C  C108  1  0.50000000  0.43933917  0.94319742  1
  C  C109  1  0.50000000  0.50000001  0.27847946  1
  C  C110  1  0.50000000  0.50000001  0.61221601  1
  C  C111  1  0.50000000  0.50000001  0.94318401  1
  C  C112  1  0.50000000  0.56030968  0.61226482  1
  C  C113  1  0.50000000  0.56066085  0.94319742  1
  C  C114  1  0.50000000  0.62056514  0.61287855  1
  C  C115  1  0.50000000  0.62040478  0.94252158  1
  C  C116  1  0.50000000  0.68061604  0.61172842  1
  C  C117  1  0.50000000  0.67997933  0.94392859  1
  C  C118  1  0.50000000  0.73986302  0.60853149  1
  C  C119  1  0.50000000  0.73905582  0.94574379  1
  H  H120  1  0.50000000  0.23627242  0.70323260  1
  H  H121  1  0.50000000  0.76372760  0.70323260  1
  H  H122  1  0.50000000  0.23631507  0.79684310  1
  H  H123  1  0.50000000  0.76368495  0.79684311  1
  H  H124  1  0.50000000  0.23804546  0.53262134  1
  H  H125  1  0.50000000  0.23633384  0.87268856  1
  H  H126  1  0.50000000  0.76195457  0.53262134  1
  H  H127  1  0.50000000  0.76366619  0.87268855  1
  H  H128  1  0.50000000  0.23630161  0.62729743  1
  H  H129  1  0.50000000  0.23805664  0.96745963  1
  H  H130  1  0.50000000  0.76369842  0.62729744  1
  H  H131  1  0.50000000  0.76194338  0.96745963  1
  H  H132  1  0.50000000  0.29103210  0.01414543  1
  H  H133  1  0.50000000  0.35065572  0.01187640  1
  H  H134  1  0.50000000  0.40873860  0.01093376  1
  H  H135  1  0.50000000  0.44730652  0.28747396  1
  H  H136  1  0.50000000  0.55269349  0.28747396  1
  H  H137  1  0.50000000  0.59126142  0.01093376  1
  H  H138  1  0.50000000  0.64934430  0.01187640  1
  H  H139  1  0.50000000  0.70896792  0.01414543  1
  H  H140  1  0.50000000  0.44789330  0.04612071  1
  H  H141  1  0.50000000  0.44729752  0.38021404  1
  H  H142  1  0.50000000  0.55210672  0.04612072  1
  H  H143  1  0.50000000  0.55270249  0.38021404  1
  H  H144  1  0.50000000  0.44730604  0.11982935  1
  H  H145  1  0.50000000  0.44788606  0.45387851  1
  H  H146  1  0.50000000  0.55269398  0.11982935  1
  H  H147  1  0.50000000  0.55211396  0.45387851  1
  H  H148  1  0.50000000  0.29100483  0.48593475  1
  H  H149  1  0.50000000  0.35063591  0.48807266  1
  H  H150  1  0.50000000  0.40872535  0.48904180  1
  H  H151  1  0.50000000  0.44729009  0.21258056  1
  H  H152  1  0.50000000  0.55270993  0.21258056  1
  H  H153  1  0.50000000  0.59127467  0.48904180  1
  H  H154  1  0.50000000  0.64936412  0.48807266  1
  H  H155  1  0.50000000  0.70899519  0.48593475  1
