# generated using pymatgen
data_HC3
_symmetry_space_group_name_H-M   'P 1'
_cell_length_a   20.00000000
_cell_length_b   37.22700000
_cell_length_c   25.96298966
_cell_angle_alpha   90.00000000
_cell_angle_beta   90.00000000
_cell_angle_gamma   90.00000000
_symmetry_Int_Tables_number   1
_chemical_formula_structural   HC3
_chemical_formula_sum   'H34 C102'
_cell_volume   19330.48432284
_cell_formula_units_Z   34
loop_
 _symmetry_equiv_pos_site_id
 _symmetry_equiv_pos_as_xyz
  1  'x, y, z'
loop_
 _atom_site_type_symbol
 _atom_site_label
 _atom_site_symmetry_multiplicity
 _atom_site_fract_x
 _atom_site_fract_y
 _atom_site_fract_z
 _atom_site_occupancy
  C  C0  1  0.50000000  0.31727570  0.55466941  1
  C  C1  1  0.50000000  0.31689963  0.88869196  1
  C  C2  1  0.50000000  0.38394930  0.55712146  1
  C  C3  1  0.50000000  0.38363088  0.88725275  1
  C  C4  1  0.50000000  0.44988779  0.55798927  1
  C  C5  1  0.50000000  0.44990262  0.88676344  1
  C  C6  1  0.50000000  0.51588166  0.55698723  1
  C  C7  1  0.50000000  0.51631660  0.88760344  1
  C  C8  1  0.50000000  0.58270524  0.22148493  1
  C  C9  1  0.50000000  0.58287457  0.55680156  1
  C  C10  1  0.50000000  0.58292692  0.88769890  1
  C  C11  1  0.50000000  0.64976802  0.55669393  1
  C  C12  1  0.50000000  0.64955839  0.88826682  1
  C  C13  1  0.50000000  0.71526311  0.55741516  1
  C  C14  1  0.50000000  0.71526358  0.88890414  1
  C  C15  1  0.50000000  0.31686680  0.61143362  1
  C  C16  1  0.50000000  0.31732013  0.94544311  1
  C  C17  1  0.50000000  0.38358380  0.61282654  1
  C  C18  1  0.50000000  0.38400349  0.94295608  1
  C  C19  1  0.50000000  0.44986482  0.61324370  1
  C  C20  1  0.50000000  0.44994345  0.94201721  1
  C  C21  1  0.50000000  0.51628576  0.61236734  1
  C  C22  1  0.50000000  0.51592649  0.94297957  1
  C  C23  1  0.50000000  0.58269715  0.27845330  1
  C  C24  1  0.50000000  0.58292429  0.61222234  1
  C  C25  1  0.50000000  0.58290772  0.94312985  1
  C  C26  1  0.50000000  0.64956852  0.61168877  1
  C  C27  1  0.50000000  0.64979105  0.94324133  1
  C  C28  1  0.50000000  0.71524556  0.61099615  1
  C  C29  1  0.50000000  0.71527774  0.94249078  1
  C  C30  1  0.50000000  0.28467812  0.63955821  1
  C  C31  1  0.50000000  0.28660579  0.97545775  1
  C  C32  1  0.50000000  0.34990628  0.63944485  1
  C  C33  1  0.50000000  0.35143670  0.97004170  1
  C  C34  1  0.50000000  0.41640149  0.64026245  1
  C  C35  1  0.50000000  0.41724909  0.96884293  1
  C  C36  1  0.50000000  0.48312304  0.64003016  1
  C  C37  1  0.50000000  0.48314643  0.96841868  1
  C  C38  1  0.50000000  0.55059730  0.30723366  1
  C  C39  1  0.50000000  0.54960794  0.63973455  1
  C  C40  1  0.50000000  0.54995228  0.97107210  1
  C  C41  1  0.50000000  0.61481899  0.30719042  1
  C  C42  1  0.50000000  0.61603132  0.63950531  1
  C  C43  1  0.50000000  0.61581307  0.97111726  1
  C  C44  1  0.50000000  0.68287902  0.63897019  1
  C  C45  1  0.50000000  0.68290460  0.96927600  1
  C  C46  1  0.50000000  0.28443111  0.69306050  1
  C  C47  1  0.50000000  0.34972780  0.69472316  1
  C  C48  1  0.50000000  0.41635520  0.69547370  1
  C  C49  1  0.50000000  0.48314126  0.69526616  1
  C  C50  1  0.50000000  0.55063998  0.02496434  1
  C  C51  1  0.50000000  0.55062370  0.36084859  1
  C  C52  1  0.50000000  0.54965168  0.69477023  1
  C  C53  1  0.50000000  0.61494450  0.02507389  1
  C  C54  1  0.50000000  0.61482762  0.36080048  1
  C  C55  1  0.50000000  0.61603329  0.69463935  1
  C  C56  1  0.50000000  0.68262795  0.69497316  1
  C  C57  1  0.50000000  0.31643298  0.72199655  1
  C  C58  1  0.50000000  0.38311018  0.72246500  1
  C  C59  1  0.50000000  0.44979254  0.72256881  1
  C  C60  1  0.50000000  0.51628988  0.72242344  1
  C  C61  1  0.50000000  0.58278903  0.05323662  1
  C  C62  1  0.50000000  0.58273385  0.38959333  1
  C  C63  1  0.50000000  0.58290534  0.72220254  1
  C  C64  1  0.50000000  0.64947495  0.72232324  1
  C  C65  1  0.50000000  0.71483468  0.72334092  1
  C  C66  1  0.50000000  0.31643955  0.77814729  1
  C  C67  1  0.50000000  0.38312969  0.77762290  1
  C  C68  1  0.50000000  0.44980055  0.77745832  1
  C  C69  1  0.50000000  0.51629010  0.77752404  1
  C  C70  1  0.50000000  0.58275854  0.11035758  1
  C  C71  1  0.50000000  0.58276056  0.44670729  1
  C  C72  1  0.50000000  0.58290507  0.77774278  1
  C  C73  1  0.50000000  0.64947705  0.77758509  1
  C  C74  1  0.50000000  0.71482588  0.77652918  1
  C  C75  1  0.50000000  0.28445652  0.80710910  1
  C  C76  1  0.50000000  0.34974989  0.80538440  1
  C  C77  1  0.50000000  0.41636546  0.80456941  1
  C  C78  1  0.50000000  0.48316305  0.80472677  1
  C  C79  1  0.50000000  0.55064236  0.13908301  1
  C  C80  1  0.50000000  0.55060317  0.47499634  1
  C  C81  1  0.50000000  0.54965255  0.80515944  1
  C  C82  1  0.50000000  0.61485007  0.13915101  1
  C  C83  1  0.50000000  0.61491301  0.47483277  1
  C  C84  1  0.50000000  0.61604034  0.80527451  1
  C  C85  1  0.50000000  0.68262015  0.80496076  1
  C  C86  1  0.50000000  0.28655358  0.52470528  1
  C  C87  1  0.50000000  0.28469692  0.86061631  1
  C  C88  1  0.50000000  0.35137843  0.53001376  1
  C  C89  1  0.50000000  0.34993249  0.86067954  1
  C  C90  1  0.50000000  0.41717956  0.53122182  1
  C  C91  1  0.50000000  0.41643227  0.85977326  1
  C  C92  1  0.50000000  0.48309998  0.53159474  1
  C  C93  1  0.50000000  0.48315696  0.85995410  1
  C  C94  1  0.50000000  0.55061027  0.19270346  1
  C  C95  1  0.50000000  0.54991735  0.52889572  1
  C  C96  1  0.50000000  0.54962073  0.86020784  1
  C  C97  1  0.50000000  0.61483078  0.19276682  1
  C  C98  1  0.50000000  0.61576725  0.52880123  1
  C  C99  1  0.50000000  0.61603148  0.86043180  1
  C  C100  1  0.50000000  0.68286442  0.53063086  1
  C  C101  1  0.50000000  0.68286633  0.86096945  1
  H  H102  1  0.50000000  0.74068198  0.53614776  1
  H  H103  1  0.50000000  0.74100502  0.86870692  1
  H  H104  1  0.50000000  0.74099777  0.63118406  1
  H  H105  1  0.50000000  0.74068959  0.96378535  1
  H  H106  1  0.50000000  0.25894716  0.61917201  1
  H  H107  1  0.50000000  0.25943183  0.95956315  1
  H  H108  1  0.50000000  0.25841491  0.71256982  1
  H  H109  1  0.50000000  0.74066481  0.70338300  1
  H  H110  1  0.50000000  0.74068715  0.79644113  1
  H  H111  1  0.50000000  0.25842305  0.78763692  1
  H  H112  1  0.50000000  0.25938625  0.54063603  1
  H  H113  1  0.50000000  0.25896161  0.88098728  1
  H  H114  1  0.50000000  0.28914218  0.01750486  1
  H  H115  1  0.50000000  0.35222100  0.01227044  1
  H  H116  1  0.50000000  0.41748675  0.01107259  1
  H  H117  1  0.50000000  0.48193284  0.01049409  1
  H  H118  1  0.50000000  0.52453359  0.28778646  1
  H  H119  1  0.50000000  0.64087423  0.28772788  1
  H  H120  1  0.50000000  0.68374338  0.01132911  1
  H  H121  1  0.50000000  0.52515110  0.04565806  1
  H  H122  1  0.50000000  0.52453840  0.38024897  1
  H  H123  1  0.50000000  0.64041720  0.04576038  1
  H  H124  1  0.50000000  0.64095232  0.38008484  1
  H  H125  1  0.50000000  0.52456113  0.11967166  1
  H  H126  1  0.50000000  0.52507834  0.45439875  1
  H  H127  1  0.50000000  0.64096431  0.11983562  1
  H  H128  1  0.50000000  0.64041694  0.45425040  1
  H  H129  1  0.50000000  0.28907110  0.48265955  1
  H  H130  1  0.50000000  0.35213584  0.48777406  1
  H  H131  1  0.50000000  0.41737978  0.48900366  1
  H  H132  1  0.50000000  0.48188534  0.48952002  1
  H  H133  1  0.50000000  0.52456354  0.21219180  1
  H  H134  1  0.50000000  0.64085668  0.21231123  1
  H  H135  1  0.50000000  0.68372039  0.48859506  1
