# generated using pymatgen
data_HC3
_symmetry_space_group_name_H-M   'P 1'
_cell_length_a   20.00000000
_cell_length_b   40.19450000
_cell_length_c   26.36254301
_cell_angle_alpha   90.00000000
_cell_angle_beta   90.00000000
_cell_angle_gamma   90.00000000
_symmetry_Int_Tables_number   1
_chemical_formula_structural   HC3
_chemical_formula_sum   'H36 C108'
_cell_volume   21192.58470364
_cell_formula_units_Z   36
loop_
 _symmetry_equiv_pos_site_id
 _symmetry_equiv_pos_as_xyz
  1  'x, y, z'
loop_
 _atom_site_type_symbol
 _atom_site_label
 _atom_site_symmetry_multiplicity
 _atom_site_fract_x
 _atom_site_fract_y
 _atom_site_fract_z
 _atom_site_occupancy
  C  C0  1  0.50000000  0.27646018  0.10414230  1
  C  C1  1  0.50000000  0.28865455  0.61129564  1
  C  C2  1  0.50000000  0.27085342  0.27664328  1
  C  C3  1  0.50000000  0.28845412  0.77642521  1
  C  C4  1  0.50000000  0.28134674  0.44852218  1
  C  C5  1  0.50000000  0.28887618  0.94159782  1
  C  C6  1  0.50000000  0.30322829  0.13884459  1
  C  C7  1  0.50000000  0.31820668  0.63987074  1
  C  C8  1  0.50000000  0.30069213  0.30499287  1
  C  C9  1  0.50000000  0.31816537  0.80472139  1
  C  C10  1  0.50000000  0.31336512  0.47196721  1
  C  C11  1  0.50000000  0.31779177  0.97156838  1
  C  C12  1  0.50000000  0.28139638  0.05152308  1
  C  C13  1  0.50000000  0.28872214  0.55846117  1
  C  C14  1  0.50000000  0.27084738  0.22333617  1
  C  C15  1  0.50000000  0.28843050  0.72372122  1
  C  C16  1  0.50000000  0.27644345  0.39590285  1
  C  C17  1  0.50000000  0.28877504  0.88877639  1
  C  C18  1  0.50000000  0.33479137  0.11597571  1
  C  C19  1  0.50000000  0.34875264  0.61253102  1
  C  C20  1  0.50000000  0.33026040  0.27616143  1
  C  C21  1  0.50000000  0.34878910  0.77728501  1
  C  C22  1  0.50000000  0.33953665  0.43613802  1
  C  C23  1  0.50000000  0.34912789  0.94303293  1
  C  C24  1  0.50000000  0.37949387  0.64071951  1
  C  C25  1  0.50000000  0.37955114  0.80446361  1
  C  C26  1  0.50000000  0.38080100  0.96547813  1
  C  C27  1  0.50000000  0.31343974  0.02808674  1
  C  C28  1  0.50000000  0.31763810  0.52846883  1
  C  C29  1  0.50000000  0.30068572  0.19497108  1
  C  C30  1  0.50000000  0.31810936  0.69532810  1
  C  C31  1  0.50000000  0.30321740  0.36114710  1
  C  C32  1  0.50000000  0.31831365  0.86016197  1
  C  C33  1  0.50000000  0.33961071  0.06394036  1
  C  C34  1  0.50000000  0.34896300  0.55694162  1
  C  C35  1  0.50000000  0.33025624  0.22373065  1
  C  C36  1  0.50000000  0.34876686  0.72268257  1
  C  C37  1  0.50000000  0.33476717  0.38406849  1
  C  C38  1  0.50000000  0.34888215  0.88743148  1
  C  C39  1  0.50000000  0.41051421  0.61524299  1
  C  C40  1  0.50000000  0.41017888  0.77718208  1
  C  C41  1  0.50000000  0.41102592  0.93883148  1
  C  C42  1  0.50000000  0.44131640  0.64192913  1
  C  C43  1  0.50000000  0.44124424  0.80359780  1
  C  C44  1  0.50000000  0.44150362  0.96512815  1
  C  C45  1  0.50000000  0.38059453  0.53438669  1
  C  C46  1  0.50000000  0.37950056  0.69542251  1
  C  C47  1  0.50000000  0.37960358  0.85915949  1
  C  C48  1  0.50000000  0.41084080  0.56092704  1
  C  C49  1  0.50000000  0.41015249  0.72261443  1
  C  C50  1  0.50000000  0.41065393  0.88452549  1
  C  C51  1  0.50000000  0.47191511  0.61489139  1
  C  C52  1  0.50000000  0.47202048  0.77687046  1
  C  C53  1  0.50000000  0.47220117  0.93950816  1
  C  C54  1  0.50000000  0.50270143  0.64147311  1
  C  C55  1  0.50000000  0.50281407  0.80366039  1
  C  C56  1  0.50000000  0.50279644  0.96548019  1
  C  C57  1  0.50000000  0.44124767  0.53445843  1
  C  C58  1  0.50000000  0.44118230  0.69608383  1
  C  C59  1  0.50000000  0.44143784  0.85774610  1
  C  C60  1  0.50000000  0.47194715  0.56002142  1
  C  C61  1  0.50000000  0.47198936  0.72268978  1
  C  C62  1  0.50000000  0.47209038  0.88464348  1
  C  C63  1  0.50000000  0.53336570  0.61452301  1
  C  C64  1  0.50000000  0.53358576  0.77678099  1
  C  C65  1  0.50000000  0.53349782  0.93965398  1
  C  C66  1  0.50000000  0.56409776  0.64119790  1
  C  C67  1  0.50000000  0.56432174  0.80360200  1
  C  C68  1  0.50000000  0.56407999  0.96556178  1
  C  C69  1  0.50000000  0.50247565  0.53391271  1
  C  C70  1  0.50000000  0.50273909  0.69575589  1
  C  C71  1  0.50000000  0.50284716  0.85793983  1
  C  C72  1  0.50000000  0.53319762  0.55963082  1
  C  C73  1  0.50000000  0.53355343  0.72248216  1
  C  C74  1  0.50000000  0.53357045  0.88474561  1
  C  C75  1  0.50000000  0.59482415  0.61412620  1
  C  C76  1  0.50000000  0.59519379  0.77671448  1
  C  C77  1  0.50000000  0.59476906  0.93965031  1
  C  C78  1  0.50000000  0.62555349  0.64067871  1
  C  C79  1  0.50000000  0.62582031  0.80360728  1
  C  C80  1  0.50000000  0.62523569  0.96581926  1
  C  C81  1  0.50000000  0.56369260  0.53351235  1
  C  C82  1  0.50000000  0.56424081  0.69550481  1
  C  C83  1  0.50000000  0.56425431  0.85790051  1
  C  C84  1  0.50000000  0.59445311  0.55923770  1
  C  C85  1  0.50000000  0.59515400  0.72224783  1
  C  C86  1  0.50000000  0.59504516  0.88477960  1
  C  C87  1  0.50000000  0.65625702  0.61324817  1
  C  C88  1  0.50000000  0.65676829  0.77662070  1
  C  C89  1  0.50000000  0.65593746  0.94018410  1
  C  C90  1  0.50000000  0.68739424  0.63939830  1
  C  C91  1  0.50000000  0.68755957  0.80377998  1
  C  C92  1  0.50000000  0.68651623  0.96719018  1
  C  C93  1  0.50000000  0.62489076  0.53298401  1
  C  C94  1  0.50000000  0.62572598  0.69520082  1
  C  C95  1  0.50000000  0.62573084  0.85811683  1
  C  C96  1  0.50000000  0.65563417  0.55851998  1
  C  C97  1  0.50000000  0.65671866  0.72206496  1
  C  C98  1  0.50000000  0.65647094  0.88544307  1
  C  C99  1  0.50000000  0.71686934  0.61061806  1
  C  C100  1  0.50000000  0.71725548  0.77554798  1
  C  C101  1  0.50000000  0.71644693  0.94116787  1
  C  C102  1  0.50000000  0.68618704  0.53145081  1
  C  C103  1  0.50000000  0.68746260  0.69479287  1
  C  C104  1  0.50000000  0.68756361  0.85917951  1
  C  C105  1  0.50000000  0.71616387  0.55734858  1
  C  C106  1  0.50000000  0.71720402  0.72290336  1
  C  C107  1  0.50000000  0.71705470  0.88790044  1
  H  H108  1  0.50000000  0.25077125  0.11811945  1
  H  H109  1  0.50000000  0.26451906  0.63043981  1
  H  H110  1  0.50000000  0.24678393  0.29624068  1
  H  H111  1  0.50000000  0.26444516  0.79592830  1
  H  H112  1  0.50000000  0.25875001  0.47167322  1
  H  H113  1  0.50000000  0.26453997  0.96002764  1
  H  H114  1  0.50000000  0.25872264  0.02856235  1
  H  H115  1  0.50000000  0.26437857  0.54005480  1
  H  H116  1  0.50000000  0.24677528  0.20377151  1
  H  H117  1  0.50000000  0.26437390  0.70434838  1
  H  H118  1  0.50000000  0.25072814  0.38209910  1
  H  H119  1  0.50000000  0.26457699  0.86985375  1
  H  H120  1  0.50000000  0.74114659  0.62938890  1
  H  H121  1  0.50000000  0.74128661  0.79504440  1
  H  H122  1  0.50000000  0.73997646  0.96213772  1
  H  H123  1  0.50000000  0.73961333  0.53617804  1
  H  H124  1  0.50000000  0.74119209  0.70328788  1
  H  H125  1  0.50000000  0.74131990  0.86912639  1
  H  H126  1  0.50000000  0.68565450  0.48987167  1
  H  H127  1  0.50000000  0.62463168  0.49140451  1
  H  H128  1  0.50000000  0.56419825  0.00716102  1
  H  H129  1  0.50000000  0.62501334  0.00741603  1
  H  H130  1  0.50000000  0.56356125  0.49191698  1
  H  H131  1  0.50000000  0.68600356  0.00878524  1
  H  H132  1  0.50000000  0.50276884  0.00706319  1
  H  H133  1  0.50000000  0.50240842  0.49232529  1
  H  H134  1  0.50000000  0.44129008  0.00671600  1
  H  H135  1  0.50000000  0.44100511  0.49284073  1
  H  H136  1  0.50000000  0.35736336  0.13899138  1
  H  H137  1  0.50000000  0.35456170  0.29458522  1
  H  H138  1  0.50000000  0.36546057  0.44689051  1
  H  H139  1  0.50000000  0.38389050  0.00606407  1
  H  H140  1  0.50000000  0.36555103  0.05327472  1
  H  H141  1  0.50000000  0.35450914  0.20515000  1
  H  H142  1  0.50000000  0.35737117  0.36118891  1
  H  H143  1  0.50000000  0.38361074  0.49378532  1
