# generated using pymatgen
data_HC3
_symmetry_space_group_name_H-M   'P 1'
_cell_length_a   20.00000000
_cell_length_b   40.19450000
_cell_length_c   26.75115790
_cell_angle_alpha   90.00000000
_cell_angle_beta   90.00000000
_cell_angle_gamma   90.00000000
_symmetry_Int_Tables_number   1
_chemical_formula_structural   HC3
_chemical_formula_sum   'H36 C108'
_cell_volume   21504.98832537
_cell_formula_units_Z   36
loop_
 _symmetry_equiv_pos_site_id
 _symmetry_equiv_pos_as_xyz
  1  'x, y, z'
loop_
 _atom_site_type_symbol
 _atom_site_label
 _atom_site_symmetry_multiplicity
 _atom_site_fract_x
 _atom_site_fract_y
 _atom_site_fract_z
 _atom_site_occupancy
  C  C0  1  0.50000000  0.28538471  0.61760800  1
  C  C1  1  0.50000000  0.28694051  0.77574093  1
  C  C2  1  0.50000000  0.28442042  0.93340254  1
  C  C3  1  0.50000000  0.31624654  0.64200118  1
  C  C4  1  0.50000000  0.31671796  0.80328522  1
  C  C5  1  0.50000000  0.31359246  0.96091545  1
  C  C6  1  0.50000000  0.28441039  0.56600438  1
  C  C7  1  0.50000000  0.28683846  0.72413393  1
  C  C8  1  0.50000000  0.28550874  0.88184995  1
  C  C9  1  0.50000000  0.34785796  0.11162796  1
  C  C10  1  0.50000000  0.34673944  0.61390937  1
  C  C11  1  0.50000000  0.34687103  0.27580364  1
  C  C12  1  0.50000000  0.34722000  0.77670233  1
  C  C13  1  0.50000000  0.34811651  0.43992511  1
  C  C14  1  0.50000000  0.34626430  0.94060827  1
  C  C15  1  0.50000000  0.37676804  0.14104132  1
  C  C16  1  0.50000000  0.37741679  0.64139447  1
  C  C17  1  0.50000000  0.37669741  0.30372188  1
  C  C18  1  0.50000000  0.37765453  0.80422507  1
  C  C19  1  0.50000000  0.37698044  0.47171721  1
  C  C20  1  0.50000000  0.37703171  0.97077549  1
  C  C21  1  0.50000000  0.31364600  0.53874050  1
  C  C22  1  0.50000000  0.31657341  0.69640495  1
  C  C23  1  0.50000000  0.31638992  0.85764096  1
  C  C24  1  0.50000000  0.34836971  0.05959000  1
  C  C25  1  0.50000000  0.34618894  0.55921886  1
  C  C26  1  0.50000000  0.34686615  0.22385198  1
  C  C27  1  0.50000000  0.34712210  0.72293132  1
  C  C28  1  0.50000000  0.34780317  0.38787835  1
  C  C29  1  0.50000000  0.34682708  0.88586828  1
  C  C30  1  0.50000000  0.40594438  0.11223401  1
  C  C31  1  0.50000000  0.40759630  0.61427198  1
  C  C32  1  0.50000000  0.40651686  0.27579009  1
  C  C33  1  0.50000000  0.40795121  0.77691442  1
  C  C34  1  0.50000000  0.40576123  0.43963327  1
  C  C35  1  0.50000000  0.40771357  0.94059725  1
  C  C36  1  0.50000000  0.43839076  0.64230890  1
  C  C37  1  0.50000000  0.43855260  0.80363336  1
  C  C38  1  0.50000000  0.43970799  0.96130231  1
  C  C39  1  0.50000000  0.37727617  0.02799459  1
  C  C40  1  0.50000000  0.37689389  0.52895540  1
  C  C41  1  0.50000000  0.37668640  0.19593142  1
  C  C42  1  0.50000000  0.37757849  0.69554260  1
  C  C43  1  0.50000000  0.37677006  0.35860640  1
  C  C44  1  0.50000000  0.37750070  0.85838910  1
  C  C45  1  0.50000000  0.40601592  0.06018360  1
  C  C46  1  0.50000000  0.40759873  0.55912084  1
  C  C47  1  0.50000000  0.40650656  0.22386819  1
  C  C48  1  0.50000000  0.40789525  0.72286983  1
  C  C49  1  0.50000000  0.40587481  0.38758116  1
  C  C50  1  0.50000000  0.40768708  0.88546309  1
  C  C51  1  0.50000000  0.46961548  0.61776262  1
  C  C52  1  0.50000000  0.46926700  0.77667732  1
  C  C53  1  0.50000000  0.46998285  0.93528521  1
  C  C54  1  0.50000000  0.50033414  0.64384982  1
  C  C55  1  0.50000000  0.50028868  0.80258592  1
  C  C56  1  0.50000000  0.50019345  0.96159579  1
  C  C57  1  0.50000000  0.43961035  0.53849084  1
  C  C58  1  0.50000000  0.43848236  0.69611413  1
  C  C59  1  0.50000000  0.43846896  0.85742269  1
  C  C60  1  0.50000000  0.46987619  0.56448972  1
  C  C61  1  0.50000000  0.46923622  0.72301100  1
  C  C62  1  0.50000000  0.46968676  0.88201618  1
  C  C63  1  0.50000000  0.53097085  0.61713105  1
  C  C64  1  0.50000000  0.53115958  0.77649232  1
  C  C65  1  0.50000000  0.53100476  0.93659420  1
  C  C66  1  0.50000000  0.56174606  0.64323431  1
  C  C67  1  0.50000000  0.56188091  0.80299267  1
  C  C68  1  0.50000000  0.56140601  0.96253685  1
  C  C69  1  0.50000000  0.50005460  0.53809179  1
  C  C70  1  0.50000000  0.50025120  0.69712394  1
  C  C71  1  0.50000000  0.50039993  0.85586592  1
  C  C72  1  0.50000000  0.53086784  0.56308110  1
  C  C73  1  0.50000000  0.53113793  0.72319225  1
  C  C74  1  0.50000000  0.53104909  0.88254635  1
  C  C75  1  0.50000000  0.59241233  0.61650442  1
  C  C76  1  0.50000000  0.59276208  0.77662466  1
  C  C77  1  0.50000000  0.59218929  0.93725209  1
  C  C78  1  0.50000000  0.62315373  0.64265997  1
  C  C79  1  0.50000000  0.62333990  0.80321959  1
  C  C80  1  0.50000000  0.62260574  0.96319918  1
  C  C81  1  0.50000000  0.56124489  0.53714187  1
  C  C82  1  0.50000000  0.56183809  0.69666441  1
  C  C83  1  0.50000000  0.56181857  0.85643037  1
  C  C84  1  0.50000000  0.59202829  0.56242298  1
  C  C85  1  0.50000000  0.59274567  0.72300325  1
  C  C86  1  0.50000000  0.59251712  0.88314643  1
  C  C87  1  0.50000000  0.65378960  0.61556715  1
  C  C88  1  0.50000000  0.65428453  0.77667078  1
  C  C89  1  0.50000000  0.65332373  0.93794157  1
  C  C90  1  0.50000000  0.68491412  0.64135618  1
  C  C91  1  0.50000000  0.68501731  0.80353551  1
  C  C92  1  0.50000000  0.68389735  0.96456910  1
  C  C93  1  0.50000000  0.62240844  0.53641953  1
  C  C94  1  0.50000000  0.62330370  0.69637012  1
  C  C95  1  0.50000000  0.62322787  0.85693739  1
  C  C96  1  0.50000000  0.65316389  0.56159853  1
  C  C97  1  0.50000000  0.65426170  0.72289017  1
  C  C98  1  0.50000000  0.65389630  0.88398652  1
  C  C99  1  0.50000000  0.71435853  0.61298601  1
  C  C100  1  0.50000000  0.71467116  0.77566752  1
  C  C101  1  0.50000000  0.71387872  0.93903037  1
  C  C102  1  0.50000000  0.68372786  0.53493775  1
  C  C103  1  0.50000000  0.68496488  0.69596306  1
  C  C104  1  0.50000000  0.68501465  0.85815976  1
  C  C105  1  0.50000000  0.71371631  0.56047403  1
  C  C106  1  0.50000000  0.71464236  0.72380724  1
  C  C107  1  0.50000000  0.71448389  0.88649905  1
  H  H108  1  0.50000000  0.26204242  0.63838060  1
  H  H109  1  0.50000000  0.26278616  0.79439507  1
  H  H110  1  0.50000000  0.26049027  0.95298423  1
  H  H111  1  0.50000000  0.26057307  0.54608166  1
  H  H112  1  0.50000000  0.26264501  0.70561316  1
  H  H113  1  0.50000000  0.26225197  0.86091665  1
  H  H114  1  0.50000000  0.73854797  0.63169681  1
  H  H115  1  0.50000000  0.73874366  0.79470309  1
  H  H116  1  0.50000000  0.73738322  0.95984272  1
  H  H117  1  0.50000000  0.73725427  0.53975703  1
  H  H118  1  0.50000000  0.73868716  0.70470600  1
  H  H119  1  0.50000000  0.73869946  0.86785334  1
  H  H120  1  0.50000000  0.68315752  0.49398712  1
  H  H121  1  0.50000000  0.30918482  0.00033802  1
  H  H122  1  0.50000000  0.32325469  0.12917564  1
  H  H123  1  0.50000000  0.32285016  0.29498789  1
  H  H124  1  0.50000000  0.32299832  0.45366146  1
  H  H125  1  0.50000000  0.30960282  0.49930183  1
  H  H126  1  0.50000000  0.32339396  0.04535435  1
  H  H127  1  0.50000000  0.32284807  0.20466444  1
  H  H128  1  0.50000000  0.32326707  0.37012003  1
  H  H129  1  0.50000000  0.62232810  0.00422514  1
  H  H130  1  0.50000000  0.68324158  0.00552845  1
  H  H131  1  0.50000000  0.62203423  0.49540485  1
  H  H132  1  0.50000000  0.56120428  0.00356513  1
  H  H133  1  0.50000000  0.56104094  0.49611411  1
  H  H134  1  0.50000000  0.49986516  0.00259981  1
  H  H135  1  0.50000000  0.49970450  0.49707526  1
  H  H136  1  0.50000000  0.43033254  0.13051056  1
  H  H137  1  0.50000000  0.43058650  0.29486613  1
  H  H138  1  0.50000000  0.43102727  0.45282423  1
  H  H139  1  0.50000000  0.44353034  0.00082465  1
  H  H140  1  0.50000000  0.43132512  0.04715240  1
  H  H141  1  0.50000000  0.43057816  0.20480596  1
  H  H142  1  0.50000000  0.43034977  0.36955248  1
  H  H143  1  0.50000000  0.44350279  0.49898848  1
