# generated using pymatgen
data_H6C17
_symmetry_space_group_name_H-M   'P 1'
_cell_length_a   20.00000000
_cell_length_b   37.22700000
_cell_length_c   26.73047218
_cell_angle_alpha   90.00000000
_cell_angle_beta   90.00000000
_cell_angle_gamma   90.00000000
_symmetry_Int_Tables_number   1
_chemical_formula_structural   H6C17
_chemical_formula_sum   'H36 C102'
_cell_volume   19901.90575823
_cell_formula_units_Z   6
loop_
 _symmetry_equiv_pos_site_id
 _symmetry_equiv_pos_as_xyz
  1  'x, y, z'
loop_
 _atom_site_type_symbol
 _atom_site_label
 _atom_site_symmetry_multiplicity
 _atom_site_fract_x
 _atom_site_fract_y
 _atom_site_fract_z
 _atom_site_occupancy
  C  C0  1  0.50000000  0.31724010  0.56027375  1
  C  C1  1  0.50000000  0.31687566  0.88456832  1
  C  C2  1  0.50000000  0.38392031  0.56242968  1
  C  C3  1  0.50000000  0.38354043  0.88338996  1
  C  C4  1  0.50000000  0.44991489  0.56325154  1
  C  C5  1  0.50000000  0.44976843  0.88279342  1
  C  C6  1  0.50000000  0.51575177  0.56456055  1
  C  C7  1  0.50000000  0.51597095  0.88219786  1
  C  C8  1  0.50000000  0.58430217  0.22402392  1
  C  C9  1  0.50000000  0.58303520  0.55941098  1
  C  C10  1  0.50000000  0.58301578  0.88542973  1
  C  C11  1  0.50000000  0.64873832  0.22399742  1
  C  C12  1  0.50000000  0.64948382  0.55932942  1
  C  C13  1  0.50000000  0.64884817  0.88589655  1
  C  C14  1  0.50000000  0.71620453  0.56641917  1
  C  C15  1  0.50000000  0.71512676  0.88210440  1
  C  C16  1  0.50000000  0.31691068  0.61540389  1
  C  C17  1  0.50000000  0.31721547  0.93971079  1
  C  C18  1  0.50000000  0.38355664  0.61655983  1
  C  C19  1  0.50000000  0.38390730  0.93752631  1
  C  C20  1  0.50000000  0.44977868  0.61722083  1
  C  C21  1  0.50000000  0.44991842  0.93676169  1
  C  C22  1  0.50000000  0.51598812  0.61783555  1
  C  C23  1  0.50000000  0.51574490  0.93547373  1
  C  C24  1  0.50000000  0.58429581  0.27597626  1
  C  C25  1  0.50000000  0.58300572  0.61452487  1
  C  C26  1  0.50000000  0.58301650  0.94054041  1
  C  C27  1  0.50000000  0.64874308  0.27598064  1
  C  C28  1  0.50000000  0.64881272  0.61406096  1
  C  C29  1  0.50000000  0.64945677  0.94063599  1
  C  C30  1  0.50000000  0.71503669  0.61796369  1
  C  C31  1  0.50000000  0.71619518  0.93369349  1
  C  C32  1  0.50000000  0.28475992  0.64278759  1
  C  C33  1  0.50000000  0.28641772  0.96869533  1
  C  C34  1  0.50000000  0.34996562  0.64249148  1
  C  C35  1  0.50000000  0.35127333  0.96373826  1
  C  C36  1  0.50000000  0.41635823  0.64329080  1
  C  C37  1  0.50000000  0.41709738  0.96275640  1
  C  C38  1  0.50000000  0.48285544  0.64395169  1
  C  C39  1  0.50000000  0.48315848  0.96184160  1
  C  C40  1  0.50000000  0.54976220  0.64252247  1
  C  C41  1  0.50000000  0.54854773  0.96130869  1
  C  C42  1  0.50000000  0.61651866  0.30396497  1
  C  C43  1  0.50000000  0.61562075  0.64161412  1
  C  C44  1  0.50000000  0.61615080  0.97086624  1
  C  C45  1  0.50000000  0.68162230  0.64226311  1
  C  C46  1  0.50000000  0.68461304  0.96109012  1
  C  C47  1  0.50000000  0.28447026  0.69475102  1
  C  C48  1  0.50000000  0.34976759  0.69622566  1
  C  C49  1  0.50000000  0.41623164  0.69694171  1
  C  C50  1  0.50000000  0.48293524  0.69730081  1
  C  C51  1  0.50000000  0.54964332  0.69623117  1
  C  C52  1  0.50000000  0.61581730  0.02791576  1
  C  C53  1  0.50000000  0.61644486  0.35877167  1
  C  C54  1  0.50000000  0.61541321  0.69567966  1
  C  C55  1  0.50000000  0.68124429  0.69655864  1
  C  C56  1  0.50000000  0.31653781  0.72277945  1
  C  C57  1  0.50000000  0.38309111  0.72320557  1
  C  C58  1  0.50000000  0.44951627  0.72343722  1
  C  C59  1  0.50000000  0.51632093  0.72319393  1
  C  C60  1  0.50000000  0.58475827  0.06022670  1
  C  C61  1  0.50000000  0.58494964  0.38771206  1
  C  C62  1  0.50000000  0.58263396  0.72300363  1
  C  C63  1  0.50000000  0.64703716  0.05965347  1
  C  C64  1  0.50000000  0.64766732  0.38828531  1
  C  C65  1  0.50000000  0.64835043  0.72310921  1
  C  C66  1  0.50000000  0.71342394  0.72419858  1
  C  C67  1  0.50000000  0.31650486  0.77725303  1
  C  C68  1  0.50000000  0.38308910  0.77676077  1
  C  C69  1  0.50000000  0.44951460  0.77655303  1
  C  C70  1  0.50000000  0.51629843  0.77683196  1
  C  C71  1  0.50000000  0.58493877  0.11226192  1
  C  C72  1  0.50000000  0.58481498  0.43973877  1
  C  C73  1  0.50000000  0.58260535  0.77705119  1
  C  C74  1  0.50000000  0.64766761  0.11168406  1
  C  C75  1  0.50000000  0.64709413  0.44030976  1
  C  C76  1  0.50000000  0.64834242  0.77683374  1
  C  C77  1  0.50000000  0.71343732  0.77573073  1
  C  C78  1  0.50000000  0.28444958  0.80527217  1
  C  C79  1  0.50000000  0.34973976  0.80370666  1
  C  C80  1  0.50000000  0.41623240  0.80304805  1
  C  C81  1  0.50000000  0.48291982  0.80271940  1
  C  C82  1  0.50000000  0.54961489  0.80379858  1
  C  C83  1  0.50000000  0.61644086  0.14119331  1
  C  C84  1  0.50000000  0.61586941  0.47203765  1
  C  C85  1  0.50000000  0.61541128  0.80425386  1
  C  C86  1  0.50000000  0.68125739  0.80340447  1
  C  C87  1  0.50000000  0.28640521  0.53137733  1
  C  C88  1  0.50000000  0.28471176  0.85721511  1
  C  C89  1  0.50000000  0.35128733  0.53622317  1
  C  C90  1  0.50000000  0.34993863  0.85745056  1
  C  C91  1  0.50000000  0.41711683  0.53720607  1
  C  C92  1  0.50000000  0.41635946  0.85669881  1
  C  C93  1  0.50000000  0.48317028  0.53820327  1
  C  C94  1  0.50000000  0.48284183  0.85607842  1
  C  C95  1  0.50000000  0.54854922  0.53869028  1
  C  C96  1  0.50000000  0.54974337  0.85751042  1
  C  C97  1  0.50000000  0.61651660  0.19602213  1
  C  C98  1  0.50000000  0.61618424  0.52907888  1
  C  C99  1  0.50000000  0.61564772  0.85831741  1
  C  C100  1  0.50000000  0.68466316  0.53893798  1
  C  C101  1  0.50000000  0.68170956  0.85775049  1
  H  H102  1  0.50000000  0.74201321  0.54666875  1
  H  H103  1  0.50000000  0.74027066  0.86120209  1
  H  H104  1  0.50000000  0.74012990  0.63892204  1
  H  H105  1  0.50000000  0.74192595  0.95365054  1
  H  H106  1  0.50000000  0.25907970  0.62292993  1
  H  H107  1  0.50000000  0.25932518  0.95295812  1
  H  H108  1  0.50000000  0.25845453  0.71378976  1
  H  H109  1  0.50000000  0.73946284  0.70553330  1
  H  H110  1  0.50000000  0.73950695  0.79434373  1
  H  H111  1  0.50000000  0.25845806  0.78620890  1
  H  H112  1  0.50000000  0.25937160  0.54730063  1
  H  H113  1  0.50000000  0.25902633  0.87707843  1
  H  H114  1  0.50000000  0.55835067  0.20487526  1
  H  H115  1  0.50000000  0.67468359  0.20479162  1
  H  H116  1  0.50000000  0.55833735  0.29512285  1
  H  H117  1  0.50000000  0.67469133  0.29518673  1
  H  H118  1  0.50000000  0.28876397  0.00957486  1
  H  H119  1  0.50000000  0.35197470  0.00475596  1
  H  H120  1  0.50000000  0.41730997  0.00379172  1
  H  H121  1  0.50000000  0.48340765  0.00288645  1
  H  H122  1  0.50000000  0.54469981  0.00087491  1
  H  H123  1  0.50000000  0.68923310  0.00058332  1
  H  H124  1  0.50000000  0.55732952  0.04746781  1
  H  H125  1  0.50000000  0.55860405  0.36951191  1
  H  H126  1  0.50000000  0.67401835  0.04549712  1
  H  H127  1  0.50000000  0.67427160  0.37081486  1
  H  H128  1  0.50000000  0.55857598  0.13040692  1
  H  H129  1  0.50000000  0.55740431  0.45256420  1
  H  H130  1  0.50000000  0.67431183  0.12906403  1
  H  H131  1  0.50000000  0.67406493  0.45450822  1
  H  H132  1  0.50000000  0.28862998  0.49048408  1
  H  H133  1  0.50000000  0.35201061  0.49520423  1
  H  H134  1  0.50000000  0.41738396  0.49615602  1
  H  H135  1  0.50000000  0.48342151  0.49717044  1
  H  H136  1  0.50000000  0.54467824  0.49912053  1
  H  H137  1  0.50000000  0.68934463  0.49947130  1
