# generated using pymatgen
data_HC3
_symmetry_space_group_name_H-M   'P 1'
_cell_length_a   20.00000000
_cell_length_b   37.22700000
_cell_length_c   25.98398250
_cell_angle_alpha   90.00000000
_cell_angle_beta   90.00000000
_cell_angle_gamma   90.00000000
_symmetry_Int_Tables_number   1
_chemical_formula_structural   HC3
_chemical_formula_sum   'H34 C102'
_cell_volume   19346.11433090
_cell_formula_units_Z   34
loop_
 _symmetry_equiv_pos_site_id
 _symmetry_equiv_pos_as_xyz
  1  'x, y, z'
loop_
 _atom_site_type_symbol
 _atom_site_label
 _atom_site_symmetry_multiplicity
 _atom_site_fract_x
 _atom_site_fract_y
 _atom_site_fract_z
 _atom_site_occupancy
  C  C0  1  0.50000000  0.31723654  0.55518581  1
  C  C1  1  0.50000000  0.31709520  0.88813041  1
  C  C2  1  0.50000000  0.38375004  0.55786757  1
  C  C3  1  0.50000000  0.38380369  0.88681769  1
  C  C4  1  0.50000000  0.44970711  0.55716248  1
  C  C5  1  0.50000000  0.45012650  0.88755137  1
  C  C6  1  0.50000000  0.51607529  0.22148031  1
  C  C7  1  0.50000000  0.51656893  0.55702452  1
  C  C8  1  0.50000000  0.51660285  0.88765380  1
  C  C9  1  0.50000000  0.58344916  0.55688226  1
  C  C10  1  0.50000000  0.58320202  0.88773424  1
  C  C11  1  0.50000000  0.64939705  0.55726935  1
  C  C12  1  0.50000000  0.64959666  0.88764230  1
  C  C13  1  0.50000000  0.71460090  0.55610694  1
  C  C14  1  0.50000000  0.71498613  0.88999664  1
  C  C15  1  0.50000000  0.31705022  0.61185507  1
  C  C16  1  0.50000000  0.31729412  0.94478729  1
  C  C17  1  0.50000000  0.38378222  0.61317272  1
  C  C18  1  0.50000000  0.38377777  0.94211478  1
  C  C19  1  0.50000000  0.45012197  0.61244995  1
  C  C20  1  0.50000000  0.44972402  0.94283599  1
  C  C21  1  0.50000000  0.51607511  0.27843285  1
  C  C22  1  0.50000000  0.51660176  0.61238240  1
  C  C23  1  0.50000000  0.51654696  0.94301874  1
  C  C24  1  0.50000000  0.58320761  0.61227408  1
  C  C25  1  0.50000000  0.58343310  0.94312950  1
  C  C26  1  0.50000000  0.64962793  0.61237229  1
  C  C27  1  0.50000000  0.64934853  0.94272484  1
  C  C28  1  0.50000000  0.71504578  0.61005428  1
  C  C29  1  0.50000000  0.71452363  0.94395040  1
  C  C30  1  0.50000000  0.28485868  0.64004672  1
  C  C31  1  0.50000000  0.28653883  0.97460943  1
  C  C32  1  0.50000000  0.35013125  0.63974305  1
  C  C33  1  0.50000000  0.35140930  0.96931536  1
  C  C34  1  0.50000000  0.41683917  0.64006617  1
  C  C35  1  0.50000000  0.41693962  0.96835736  1
  C  C36  1  0.50000000  0.48399449  0.30728157  1
  C  C37  1  0.50000000  0.48343743  0.63978926  1
  C  C38  1  0.50000000  0.48364861  0.97094222  1
  C  C39  1  0.50000000  0.54821052  0.30713670  1
  C  C40  1  0.50000000  0.54988310  0.63975050  1
  C  C41  1  0.50000000  0.54938313  0.97109252  1
  C  C42  1  0.50000000  0.61633267  0.63974794  1
  C  C43  1  0.50000000  0.61609158  0.96878243  1
  C  C44  1  0.50000000  0.68314844  0.63898998  1
  C  C45  1  0.50000000  0.68213127  0.97025231  1
  C  C46  1  0.50000000  0.28475838  0.69339273  1
  C  C47  1  0.50000000  0.35012697  0.69486686  1
  C  C48  1  0.50000000  0.41683257  0.69535940  1
  C  C49  1  0.50000000  0.48431369  0.02485948  1
  C  C50  1  0.50000000  0.48407865  0.36089421  1
  C  C51  1  0.50000000  0.48349212  0.69501166  1
  C  C52  1  0.50000000  0.54852802  0.02495445  1
  C  C53  1  0.50000000  0.54826598  0.36072057  1
  C  C54  1  0.50000000  0.54993644  0.69479788  1
  C  C55  1  0.50000000  0.61630482  0.69501051  1
  C  C56  1  0.50000000  0.68303495  0.69501066  1
  C  C57  1  0.50000000  0.31690368  0.72205474  1
  C  C58  1  0.50000000  0.38363115  0.72243200  1
  C  C59  1  0.50000000  0.45015395  0.72257300  1
  C  C60  1  0.50000000  0.51636995  0.05321045  1
  C  C61  1  0.50000000  0.51622706  0.38961706  1
  C  C62  1  0.50000000  0.51664144  0.72234424  1
  C  C63  1  0.50000000  0.58324445  0.72231586  1
  C  C64  1  0.50000000  0.64978983  0.72239131  1
  C  C65  1  0.50000000  0.71519852  0.72339544  1
  C  C66  1  0.50000000  0.31692317  0.77794727  1
  C  C67  1  0.50000000  0.38365573  0.77750675  1
  C  C68  1  0.50000000  0.45016230  0.77744276  1
  C  C69  1  0.50000000  0.51622393  0.11035501  1
  C  C70  1  0.50000000  0.51637744  0.44678349  1
  C  C71  1  0.50000000  0.51663252  0.77766142  1
  C  C72  1  0.50000000  0.58323688  0.77772226  1
  C  C73  1  0.50000000  0.64978459  0.77763884  1
  C  C74  1  0.50000000  0.71519396  0.77664905  1
  C  C75  1  0.50000000  0.28478456  0.80660589  1
  C  C76  1  0.50000000  0.35016122  0.80511391  1
  C  C77  1  0.50000000  0.41684346  0.80462896  1
  C  C78  1  0.50000000  0.48407224  0.13904680  1
  C  C79  1  0.50000000  0.48433432  0.47515980  1
  C  C80  1  0.50000000  0.48349377  0.80501086  1
  C  C81  1  0.50000000  0.54827802  0.13921533  1
  C  C82  1  0.50000000  0.54852927  0.47508412  1
  C  C83  1  0.50000000  0.54991905  0.80521484  1
  C  C84  1  0.50000000  0.61629701  0.80502171  1
  C  C85  1  0.50000000  0.68302882  0.80502417  1
  C  C86  1  0.50000000  0.28647552  0.52533096  1
  C  C87  1  0.50000000  0.28490503  0.85995169  1
  C  C88  1  0.50000000  0.35136563  0.53066782  1
  C  C89  1  0.50000000  0.35016303  0.86023851  1
  C  C90  1  0.50000000  0.41693517  0.53163077  1
  C  C91  1  0.50000000  0.41685424  0.85992550  1
  C  C92  1  0.50000000  0.48397928  0.19265326  1
  C  C93  1  0.50000000  0.48365349  0.52908415  1
  C  C94  1  0.50000000  0.48344417  0.86023494  1
  C  C95  1  0.50000000  0.54822589  0.19279966  1
  C  C96  1  0.50000000  0.54938827  0.52894986  1
  C  C97  1  0.50000000  0.54987554  0.86026444  1
  C  C98  1  0.50000000  0.61613083  0.53122859  1
  C  C99  1  0.50000000  0.61629019  0.86026829  1
  C  C100  1  0.50000000  0.68220579  0.52977090  1
  C  C101  1  0.50000000  0.68313952  0.86103783  1
  H  H102  1  0.50000000  0.74004469  0.53493663  1
  H  H103  1  0.50000000  0.74103776  0.87063437  1
  H  H104  1  0.50000000  0.74108474  0.62944576  1
  H  H105  1  0.50000000  0.73997097  0.96511757  1
  H  H106  1  0.50000000  0.25909273  0.61979290  1
  H  H107  1  0.50000000  0.25944223  0.95852080  1
  H  H108  1  0.50000000  0.25882682  0.71313124  1
  H  H109  1  0.50000000  0.74099264  0.70329274  1
  H  H110  1  0.50000000  0.74099040  0.79675884  1
  H  H111  1  0.50000000  0.25884086  0.78688149  1
  H  H112  1  0.50000000  0.25937079  0.54143346  1
  H  H113  1  0.50000000  0.25915097  0.88020281  1
  H  H114  1  0.50000000  0.28888555  0.01662596  1
  H  H115  1  0.50000000  0.35238633  0.01148551  1
  H  H116  1  0.50000000  0.41567862  0.01037187  1
  H  H117  1  0.50000000  0.45789989  0.28790545  1
  H  H118  1  0.50000000  0.57424879  0.28766382  1
  H  H119  1  0.50000000  0.61709714  0.01082132  1
  H  H120  1  0.50000000  0.68130795  0.01242086  1
  H  H121  1  0.50000000  0.45882094  0.04546614  1
  H  H122  1  0.50000000  0.45800764  0.38034873  1
  H  H123  1  0.50000000  0.57393431  0.04572975  1
  H  H124  1  0.50000000  0.57434461  0.38009888  1
  H  H125  1  0.50000000  0.45801590  0.11954465  1
  H  H126  1  0.50000000  0.45881382  0.45463058  1
  H  H127  1  0.50000000  0.57433899  0.11978357  1
  H  H128  1  0.50000000  0.57395626  0.45438838  1
  H  H129  1  0.50000000  0.28881598  0.48328726  1
  H  H130  1  0.50000000  0.35233746  0.48848786  1
  H  H131  1  0.50000000  0.41566586  0.48959727  1
  H  H132  1  0.50000000  0.45788702  0.21204612  1
  H  H133  1  0.50000000  0.57426176  0.21229352  1
  H  H134  1  0.50000000  0.61716716  0.48919382  1
  H  H135  1  0.50000000  0.68147241  0.48759794  1
