# generated using pymatgen
data_H3C10
_symmetry_space_group_name_H-M   'P 1'
_cell_length_a   10.00000000
_cell_length_b   41.10890000
_cell_length_c   26.00376152
_cell_angle_alpha   90.00000000
_cell_angle_beta   90.00000000
_cell_angle_gamma   90.00000000
_symmetry_Int_Tables_number   1
_chemical_formula_structural   H3C10
_chemical_formula_sum   'H36 C120'
_cell_volume   10689.86031788
_cell_formula_units_Z   12
loop_
 _symmetry_equiv_pos_site_id
 _symmetry_equiv_pos_as_xyz
  1  'x, y, z'
loop_
 _atom_site_type_symbol
 _atom_site_label
 _atom_site_symmetry_multiplicity
 _atom_site_fract_x
 _atom_site_fract_y
 _atom_site_fract_z
 _atom_site_occupancy
  C  C0  1  0.50000000  0.28902830  0.63865618  1
  C  C1  1  0.50000000  0.29015656  0.97081299  1
  C  C2  1  0.50000000  0.34943910  0.63997329  1
  C  C3  1  0.50000000  0.35011537  0.96915792  1
  C  C4  1  0.50000000  0.40952027  0.64046302  1
  C  C5  1  0.50000000  0.40989873  0.96848415  1
  C  C6  1  0.50000000  0.46976965  0.64013326  1
  C  C7  1  0.50000000  0.46966517  0.96824721  1
  C  C8  1  0.50000000  0.53120045  0.30712467  1
  C  C9  1  0.50000000  0.52998313  0.63971619  1
  C  C10  1  0.50000000  0.53017837  0.97098745  1
  C  C11  1  0.50000000  0.58936329  0.30731900  1
  C  C12  1  0.50000000  0.59013030  0.63969490  1
  C  C13  1  0.50000000  0.58973801  0.97103858  1
  C  C14  1  0.50000000  0.65030459  0.63978457  1
  C  C15  1  0.50000000  0.65019087  0.96866399  1
  C  C16  1  0.50000000  0.71084553  0.63912767  1
  C  C17  1  0.50000000  0.71007354  0.96997308  1
  C  C18  1  0.50000000  0.28904130  0.69478576  1
  C  C19  1  0.50000000  0.34937245  0.69511039  1
  C  C20  1  0.50000000  0.40951022  0.69534406  1
  C  C21  1  0.50000000  0.46980016  0.69527622  1
  C  C22  1  0.50000000  0.53088986  0.02493011  1
  C  C23  1  0.50000000  0.53114064  0.36069811  1
  C  C24  1  0.50000000  0.53003542  0.69493367  1
  C  C25  1  0.50000000  0.58902838  0.02486914  1
  C  C26  1  0.50000000  0.58924515  0.36091721  1
  C  C27  1  0.50000000  0.59017860  0.69481251  1
  C  C28  1  0.50000000  0.65028123  0.69505004  1
  C  C29  1  0.50000000  0.71070036  0.69509086  1
  C  C30  1  0.50000000  0.25995768  0.72335755  1
  C  C31  1  0.50000000  0.31908509  0.72239197  1
  C  C32  1  0.50000000  0.37930864  0.72242412  1
  C  C33  1  0.50000000  0.43968434  0.72247659  1
  C  C34  1  0.50000000  0.49992372  0.72250592  1
  C  C35  1  0.50000000  0.55996840  0.05314180  1
  C  C36  1  0.50000000  0.56013808  0.38962740  1
  C  C37  1  0.50000000  0.56009907  0.72234458  1
  C  C38  1  0.50000000  0.62034050  0.72233987  1
  C  C39  1  0.50000000  0.68055897  0.72241960  1
  C  C40  1  0.50000000  0.73980616  0.72339546  1
  C  C41  1  0.50000000  0.25996255  0.77667160  1
  C  C42  1  0.50000000  0.31909225  0.77763740  1
  C  C43  1  0.50000000  0.37931589  0.77756310  1
  C  C44  1  0.50000000  0.43968590  0.77748898  1
  C  C45  1  0.50000000  0.49992268  0.77750112  1
  C  C46  1  0.50000000  0.56011267  0.11028312  1
  C  C47  1  0.50000000  0.56000863  0.44679021  1
  C  C48  1  0.50000000  0.56009684  0.77767178  1
  C  C49  1  0.50000000  0.62033509  0.77768972  1
  C  C50  1  0.50000000  0.68055529  0.77761725  1
  C  C51  1  0.50000000  0.73980827  0.77660562  1
  C  C52  1  0.50000000  0.28905166  0.80524395  1
  C  C53  1  0.50000000  0.34939006  0.80489760  1
  C  C54  1  0.50000000  0.40951939  0.80464245  1
  C  C55  1  0.50000000  0.46979552  0.80471435  1
  C  C56  1  0.50000000  0.53111973  0.13921150  1
  C  C57  1  0.50000000  0.53091447  0.47509275  1
  C  C58  1  0.50000000  0.53003570  0.80507807  1
  C  C59  1  0.50000000  0.58923345  0.13896175  1
  C  C60  1  0.50000000  0.58906341  0.47513605  1
  C  C61  1  0.50000000  0.59017410  0.80521555  1
  C  C62  1  0.50000000  0.65027082  0.80498870  1
  C  C63  1  0.50000000  0.71069282  0.80492104  1
  C  C64  1  0.50000000  0.29005271  0.52923075  1
  C  C65  1  0.50000000  0.28906955  0.86136666  1
  C  C66  1  0.50000000  0.35002671  0.53084063  1
  C  C67  1  0.50000000  0.34947164  0.86002651  1
  C  C68  1  0.50000000  0.40984444  0.53148798  1
  C  C69  1  0.50000000  0.40954238  0.85953223  1
  C  C70  1  0.50000000  0.46963876  0.53175116  1
  C  C71  1  0.50000000  0.46978619  0.85986672  1
  C  C72  1  0.50000000  0.53119314  0.19279261  1
  C  C73  1  0.50000000  0.53017216  0.52902610  1
  C  C74  1  0.50000000  0.52998341  0.86029844  1
  C  C75  1  0.50000000  0.58936507  0.19257156  1
  C  C76  1  0.50000000  0.58977406  0.52897178  1
  C  C77  1  0.50000000  0.59011221  0.86032626  1
  C  C78  1  0.50000000  0.65024604  0.53134438  1
  C  C79  1  0.50000000  0.65028157  0.86024829  1
  C  C80  1  0.50000000  0.71014018  0.53005477  1
  C  C81  1  0.50000000  0.71080710  0.86088283  1
  C  C82  1  0.50000000  0.26074600  0.55556150  1
  C  C83  1  0.50000000  0.26024514  0.89051102  1
  C  C84  1  0.50000000  0.31994589  0.55663820  1
  C  C85  1  0.50000000  0.31949139  0.88790634  1
  C  C86  1  0.50000000  0.37974709  0.55751270  1
  C  C87  1  0.50000000  0.37955517  0.88691271  1
  C  C88  1  0.50000000  0.43952084  0.55805011  1
  C  C89  1  0.50000000  0.43966796  0.88664094  1
  C  C90  1  0.50000000  0.49935557  0.55713664  1
  C  C91  1  0.50000000  0.49982968  0.88758420  1
  C  C92  1  0.50000000  0.56032117  0.22145799  1
  C  C93  1  0.50000000  0.56000945  0.55697367  1
  C  C94  1  0.50000000  0.56004438  0.88769501  1
  C  C95  1  0.50000000  0.62059764  0.55693654  1
  C  C96  1  0.50000000  0.62032906  0.88775891  1
  C  C97  1  0.50000000  0.68035667  0.55742727  1
  C  C98  1  0.50000000  0.68045342  0.88752215  1
  C  C99  1  0.50000000  0.73946880  0.55642321  1
  C  C100  1  0.50000000  0.73971506  0.88967459  1
  C  C101  1  0.50000000  0.26017886  0.60955314  1
  C  C102  1  0.50000000  0.26085403  0.94448921  1
  C  C103  1  0.50000000  0.31944464  0.61210616  1
  C  C104  1  0.50000000  0.32003013  0.94338453  1
  C  C105  1  0.50000000  0.37952372  0.61307514  1
  C  C106  1  0.50000000  0.37980949  0.94245564  1
  C  C107  1  0.50000000  0.43964674  0.61335518  1
  C  C108  1  0.50000000  0.43956409  0.94193115  1
  C  C109  1  0.50000000  0.49981064  0.61244747  1
  C  C110  1  0.50000000  0.49939236  0.94285578  1
  C  C111  1  0.50000000  0.56031947  0.27844910  1
  C  C112  1  0.50000000  0.56005189  0.61233660  1
  C  C113  1  0.50000000  0.55996121  0.94304558  1
  C  C114  1  0.50000000  0.62035497  0.61227481  1
  C  C115  1  0.50000000  0.62056608  0.94309298  1
  C  C116  1  0.50000000  0.68049252  0.61249100  1
  C  C117  1  0.50000000  0.68030157  0.94258041  1
  C  C118  1  0.50000000  0.73976845  0.61035087  1
  C  C119  1  0.50000000  0.73940619  0.94360837  1
  H  H120  1  0.50000000  0.23652545  0.70341440  1
  H  H121  1  0.50000000  0.76318551  0.70336913  1
  H  H122  1  0.50000000  0.23653568  0.79662964  1
  H  H123  1  0.50000000  0.76317731  0.79664135  1
  H  H124  1  0.50000000  0.23767729  0.53443622  1
  H  H125  1  0.50000000  0.23654705  0.87140531  1
  H  H126  1  0.50000000  0.76260919  0.53543228  1
  H  H127  1  0.50000000  0.76326628  0.87010631  1
  H  H128  1  0.50000000  0.23651386  0.62876325  1
  H  H129  1  0.50000000  0.23779598  0.96562309  1
  H  H130  1  0.50000000  0.76331372  0.62992683  1
  H  H131  1  0.50000000  0.76253461  0.96461787  1
  H  H132  1  0.50000000  0.29076536  0.01296335  1
  H  H133  1  0.50000000  0.35048417  0.01129249  1
  H  H134  1  0.50000000  0.40991214  0.01064346  1
  H  H135  1  0.50000000  0.46866141  0.01024333  1
  H  H136  1  0.50000000  0.50764008  0.28755485  1
  H  H137  1  0.50000000  0.61299402  0.28790610  1
  H  H138  1  0.50000000  0.65121443  0.01065968  1
  H  H139  1  0.50000000  0.70948155  0.01211594  1
  H  H140  1  0.50000000  0.50784080  0.04560373  1
  H  H141  1  0.50000000  0.50753479  0.38010071  1
  H  H142  1  0.50000000  0.61204500  0.04562362  1
  H  H143  1  0.50000000  0.61283837  0.38039952  1
  H  H144  1  0.50000000  0.50750809  0.11981762  1
  H  H145  1  0.50000000  0.50786528  0.45440330  1
  H  H146  1  0.50000000  0.61282249  0.11946001  1
  H  H147  1  0.50000000  0.61208952  0.45439441  1
  H  H148  1  0.50000000  0.29066543  0.48708242  1
  H  H149  1  0.50000000  0.35034137  0.48870725  1
  H  H150  1  0.50000000  0.40985324  0.48932055  1
  H  H151  1  0.50000000  0.46862440  0.48972470  1
  H  H152  1  0.50000000  0.50761703  0.21232928  1
  H  H153  1  0.50000000  0.61301199  0.21195918  1
  H  H154  1  0.50000000  0.65123279  0.48934581  1
  H  H155  1  0.50000000  0.70953848  0.48791312  1
