# generated using pymatgen
data_H19C60
_symmetry_space_group_name_H-M   'P 1'
_cell_length_a   10.00000000
_cell_length_b   41.10890000
_cell_length_c   26.75454453
_cell_angle_alpha   90.00000000
_cell_angle_beta   90.00000000
_cell_angle_gamma   90.00000000
_symmetry_Int_Tables_number   1
_chemical_formula_structural   H19C60
_chemical_formula_sum   'H38 C120'
_cell_volume   10998.49895612
_cell_formula_units_Z   2
loop_
 _symmetry_equiv_pos_site_id
 _symmetry_equiv_pos_as_xyz
  1  'x, y, z'
loop_
 _atom_site_type_symbol
 _atom_site_label
 _atom_site_symmetry_multiplicity
 _atom_site_fract_x
 _atom_site_fract_y
 _atom_site_fract_z
 _atom_site_occupancy
  C  C0  1  0.50000000  0.28922831  0.64173102  1
  C  C1  1  0.50000000  0.29036014  0.96459861  1
  C  C2  1  0.50000000  0.34964813  0.64316004  1
  C  C3  1  0.50000000  0.35030372  0.96299258  1
  C  C4  1  0.50000000  0.40970235  0.64410473  1
  C  C5  1  0.50000000  0.41000315  0.96162973  1
  C  C6  1  0.50000000  0.47039512  0.64260042  1
  C  C7  1  0.50000000  0.46899434  0.96096328  1
  C  C8  1  0.50000000  0.52952185  0.30391792  1
  C  C9  1  0.50000000  0.53012212  0.64191504  1
  C  C10  1  0.50000000  0.53000651  0.97076103  1
  C  C11  1  0.50000000  0.58982117  0.64259541  1
  C  C12  1  0.50000000  0.59106898  0.96116105  1
  C  C13  1  0.50000000  0.65052150  0.64379615  1
  C  C14  1  0.50000000  0.65000376  0.96205696  1
  C  C15  1  0.50000000  0.71093804  0.64208824  1
  C  C16  1  0.50000000  0.70993246  0.96409220  1
  C  C17  1  0.50000000  0.28922390  0.69629907  1
  C  C18  1  0.50000000  0.34958858  0.69672284  1
  C  C19  1  0.50000000  0.40983211  0.69728181  1
  C  C20  1  0.50000000  0.47033929  0.69640442  1
  C  C21  1  0.50000000  0.52985110  0.02784110  1
  C  C22  1  0.50000000  0.52960879  0.35869326  1
  C  C23  1  0.50000000  0.53015246  0.69601084  1
  C  C24  1  0.50000000  0.58993621  0.69633902  1
  C  C25  1  0.50000000  0.65039868  0.69714531  1
  C  C26  1  0.50000000  0.71085859  0.69651813  1
  C  C27  1  0.50000000  0.26017688  0.72409439  1
  C  C28  1  0.50000000  0.31928927  0.72315917  1
  C  C29  1  0.50000000  0.37953337  0.72330014  1
  C  C30  1  0.50000000  0.44021596  0.72319042  1
  C  C31  1  0.50000000  0.50163429  0.05989216  1
  C  C32  1  0.50000000  0.50128905  0.38808705  1
  C  C33  1  0.50000000  0.50028593  0.72313937  1
  C  C34  1  0.50000000  0.55793238  0.06012857  1
  C  C35  1  0.50000000  0.55803908  0.38784068  1
  C  C36  1  0.50000000  0.55999245  0.72308957  1
  C  C37  1  0.50000000  0.62017137  0.72311832  1
  C  C38  1  0.50000000  0.68074688  0.72328126  1
  C  C39  1  0.50000000  0.73992815  0.72413635  1
  C  C40  1  0.50000000  0.26017731  0.77591682  1
  C  C41  1  0.50000000  0.31928955  0.77684366  1
  C  C42  1  0.50000000  0.37953174  0.77670054  1
  C  C43  1  0.50000000  0.44020727  0.77679566  1
  C  C44  1  0.50000000  0.50129705  0.11187828  1
  C  C45  1  0.50000000  0.50161844  0.44007643  1
  C  C46  1  0.50000000  0.50028077  0.77686247  1
  C  C47  1  0.50000000  0.55804638  0.11212810  1
  C  C48  1  0.50000000  0.55792751  0.43984131  1
  C  C49  1  0.50000000  0.55998836  0.77692337  1
  C  C50  1  0.50000000  0.62016259  0.77689206  1
  C  C51  1  0.50000000  0.68075113  0.77671824  1
  C  C52  1  0.50000000  0.73993110  0.77589031  1
  C  C53  1  0.50000000  0.28922703  0.80369755  1
  C  C54  1  0.50000000  0.34958924  0.80327479  1
  C  C55  1  0.50000000  0.40982883  0.80271244  1
  C  C56  1  0.50000000  0.47032748  0.80358848  1
  C  C57  1  0.50000000  0.52961494  0.14128092  1
  C  C58  1  0.50000000  0.52984467  0.47212403  1
  C  C59  1  0.50000000  0.53014611  0.80399958  1
  C  C60  1  0.50000000  0.58994365  0.80367123  1
  C  C61  1  0.50000000  0.65039265  0.80286528  1
  C  C62  1  0.50000000  0.71083218  0.80349204  1
  C  C63  1  0.50000000  0.29036419  0.53539717  1
  C  C64  1  0.50000000  0.28923382  0.85825968  1
  C  C65  1  0.50000000  0.35029330  0.53699529  1
  C  C66  1  0.50000000  0.34964811  0.85684091  1
  C  C67  1  0.50000000  0.41002154  0.53841779  1
  C  C68  1  0.50000000  0.40970247  0.85589454  1
  C  C69  1  0.50000000  0.46900776  0.53905785  1
  C  C70  1  0.50000000  0.47037634  0.85739861  1
  C  C71  1  0.50000000  0.52952408  0.19606319  1
  C  C72  1  0.50000000  0.53001501  0.52921493  1
  C  C73  1  0.50000000  0.53011150  0.85809163  1
  C  C74  1  0.50000000  0.59107370  0.53886725  1
  C  C75  1  0.50000000  0.58982169  0.85742112  1
  C  C76  1  0.50000000  0.65001493  0.53803032  1
  C  C77  1  0.50000000  0.65051226  0.85623132  1
  C  C78  1  0.50000000  0.70992496  0.53590174  1
  C  C79  1  0.50000000  0.71090980  0.85792054  1
  C  C80  1  0.50000000  0.26103015  0.56087859  1
  C  C81  1  0.50000000  0.26040591  0.88661479  1
  C  C82  1  0.50000000  0.32022583  0.56207479  1
  C  C83  1  0.50000000  0.31967280  0.88399523  1
  C  C84  1  0.50000000  0.37989711  0.56323587  1
  C  C85  1  0.50000000  0.37971653  0.88275286  1
  C  C86  1  0.50000000  0.43944469  0.56491558  1
  C  C87  1  0.50000000  0.43973542  0.88192564  1
  C  C88  1  0.50000000  0.50030780  0.22401512  1
  C  C89  1  0.50000000  0.50018412  0.55967984  1
  C  C90  1  0.50000000  0.50036060  0.88530642  1
  C  C91  1  0.50000000  0.55872028  0.22403257  1
  C  C92  1  0.50000000  0.55991151  0.55956183  1
  C  C93  1  0.50000000  0.55984636  0.88534498  1
  C  C94  1  0.50000000  0.62067621  0.56473767  1
  C  C95  1  0.50000000  0.62052575  0.88210251  1
  C  C96  1  0.50000000  0.68014287  0.56274335  1
  C  C97  1  0.50000000  0.68048422  0.88347992  1
  C  C98  1  0.50000000  0.73927314  0.56134601  1
  C  C99  1  0.50000000  0.73977005  0.88616260  1
  C  C100  1  0.50000000  0.26039285  0.61337721  1
  C  C101  1  0.50000000  0.26103696  0.93910587  1
  C  C102  1  0.50000000  0.31967336  0.61601261  1
  C  C103  1  0.50000000  0.32022383  0.93793499  1
  C  C104  1  0.50000000  0.37971174  0.61724134  1
  C  C105  1  0.50000000  0.37990094  0.93675036  1
  C  C106  1  0.50000000  0.43974553  0.61809679  1
  C  C107  1  0.50000000  0.43942466  0.93511912  1
  C  C108  1  0.50000000  0.50030789  0.27596535  1
  C  C109  1  0.50000000  0.50037943  0.61468800  1
  C  C110  1  0.50000000  0.50016674  0.94030954  1
  C  C111  1  0.50000000  0.55871911  0.27596213  1
  C  C112  1  0.50000000  0.55984944  0.61465871  1
  C  C113  1  0.50000000  0.55990788  0.94043443  1
  C  C114  1  0.50000000  0.62052503  0.61793151  1
  C  C115  1  0.50000000  0.62067623  0.93530726  1
  C  C116  1  0.50000000  0.68050949  0.61655559  1
  C  C117  1  0.50000000  0.68013093  0.93730875  1
  C  C118  1  0.50000000  0.73979775  0.61380490  1
  C  C119  1  0.50000000  0.73927307  0.93861613  1
  H  H120  1  0.50000000  0.23668702  0.70490468  1
  H  H121  1  0.50000000  0.76338868  0.70488851  1
  H  H122  1  0.50000000  0.23668800  0.79510502  1
  H  H123  1  0.50000000  0.76338229  0.79513252  1
  H  H124  1  0.50000000  0.23805836  0.54005962  1
  H  H125  1  0.50000000  0.23669266  0.86806792  1
  H  H126  1  0.50000000  0.76229336  0.54063440  1
  H  H127  1  0.50000000  0.76341316  0.86743676  1
  H  H128  1  0.50000000  0.23668535  0.63195800  1
  H  H129  1  0.50000000  0.23804385  0.95987739  1
  H  H130  1  0.50000000  0.76345194  0.63248903  1
  H  H131  1  0.50000000  0.76230836  0.95928206  1
  H  H132  1  0.50000000  0.29099262  0.00556175  1
  H  H133  1  0.50000000  0.35081379  0.00402160  1
  H  H134  1  0.50000000  0.41044175  0.00261570  1
  H  H135  1  0.50000000  0.46542444  0.00044090  1
  H  H136  1  0.50000000  0.59467695  0.00067772  1
  H  H137  1  0.50000000  0.64923772  0.00306436  1
  H  H138  1  0.50000000  0.70924539  0.00505148  1
  H  H139  1  0.50000000  0.47695163  0.04657799  1
  H  H140  1  0.50000000  0.47718701  0.37061944  1
  H  H141  1  0.50000000  0.58259549  0.04683328  1
  H  H142  1  0.50000000  0.58202024  0.37003754  1
  H  H143  1  0.50000000  0.47718487  0.12931177  1
  H  H144  1  0.50000000  0.47693113  0.45338086  1
  H  H145  1  0.50000000  0.58203345  0.12991604  1
  H  H146  1  0.50000000  0.58258953  0.45314059  1
  H  H147  1  0.50000000  0.29101191  0.49443698  1
  H  H148  1  0.50000000  0.35071655  0.49595289  1
  H  H149  1  0.50000000  0.41053982  0.49744623  1
  H  H150  1  0.50000000  0.46543204  0.49957758  1
  H  H151  1  0.50000000  0.59466865  0.49934932  1
  H  H152  1  0.50000000  0.64929400  0.49703798  1
  H  H153  1  0.50000000  0.70922004  0.49494224  1
  H  H154  1  0.50000000  0.47678118  0.20485057  1
  H  H155  1  0.50000000  0.58222960  0.20483844  1
  H  H156  1  0.50000000  0.47678922  0.29514785  1
  H  H157  1  0.50000000  0.58222271  0.29517199  1
