# generated using pymatgen
data_HC3
_symmetry_space_group_name_H-M   'P 1'
_cell_length_a   20.00000000
_cell_length_b   40.19450000
_cell_length_c   26.63600044
_cell_angle_alpha   90.00000000
_cell_angle_beta   90.00000000
_cell_angle_gamma   90.00000000
_symmetry_Int_Tables_number   1
_chemical_formula_structural   HC3
_chemical_formula_sum   'H36 C108'
_cell_volume   21412.41439735
_cell_formula_units_Z   36
loop_
 _symmetry_equiv_pos_site_id
 _symmetry_equiv_pos_as_xyz
  1  'x, y, z'
loop_
 _atom_site_type_symbol
 _atom_site_label
 _atom_site_symmetry_multiplicity
 _atom_site_fract_x
 _atom_site_fract_y
 _atom_site_fract_z
 _atom_site_occupancy
  C  C0  1  0.50000000  0.28555310  0.61294929  1
  C  C1  1  0.50000000  0.28530783  0.77594033  1
  C  C2  1  0.50000000  0.28611015  0.93958158  1
  C  C3  1  0.50000000  0.31500930  0.64144941  1
  C  C4  1  0.50000000  0.31505192  0.80366803  1
  C  C5  1  0.50000000  0.31614090  0.96507338  1
  C  C6  1  0.50000000  0.28607834  0.56022197  1
  C  C7  1  0.50000000  0.28530568  0.72390931  1
  C  C8  1  0.50000000  0.28555512  0.88684925  1
  C  C9  1  0.50000000  0.34616071  0.61581785  1
  C  C10  1  0.50000000  0.34583776  0.77675850  1
  C  C11  1  0.50000000  0.34658756  0.93807408  1
  C  C12  1  0.50000000  0.37679649  0.64321767  1
  C  C13  1  0.50000000  0.37688889  0.80297045  1
  C  C14  1  0.50000000  0.37740439  0.96282828  1
  C  C15  1  0.50000000  0.31609792  0.53469164  1
  C  C16  1  0.50000000  0.31504742  0.69616320  1
  C  C17  1  0.50000000  0.31502216  0.85838087  1
  C  C18  1  0.50000000  0.34653466  0.56175401  1
  C  C19  1  0.50000000  0.34583388  0.72307240  1
  C  C20  1  0.50000000  0.34618042  0.88400438  1
  C  C21  1  0.50000000  0.40749076  0.61730607  1
  C  C22  1  0.50000000  0.40778621  0.77687245  1
  C  C23  1  0.50000000  0.40735207  0.93583062  1
  C  C24  1  0.50000000  0.43889803  0.64212967  1
  C  C25  1  0.50000000  0.43876803  0.80368088  1
  C  C26  1  0.50000000  0.43766336  0.96161393  1
  C  C27  1  0.50000000  0.37736023  0.53700499  1
  C  C28  1  0.50000000  0.37687632  0.69683055  1
  C  C29  1  0.50000000  0.37680295  0.85657695  1
  C  C30  1  0.50000000  0.40733156  0.56390815  1
  C  C31  1  0.50000000  0.40777731  0.72290237  1
  C  C32  1  0.50000000  0.40750003  0.88245084  1
  C  C33  1  0.50000000  0.47091149  0.11239044  1
  C  C34  1  0.50000000  0.46955832  0.61423475  1
  C  C35  1  0.50000000  0.47004506  0.27585323  1
  C  C36  1  0.50000000  0.46940623  0.77689045  1
  C  C37  1  0.50000000  0.47120852  0.43941575  1
  C  C38  1  0.50000000  0.46945425  0.94071313  1
  C  C39  1  0.50000000  0.49998597  0.14148005  1
  C  C40  1  0.50000000  0.50000906  0.64153095  1
  C  C41  1  0.50000000  0.50002389  0.30355946  1
  C  C42  1  0.50000000  0.50001911  0.80404669  1
  C  C43  1  0.50000000  0.50002752  0.47159249  1
  C  C44  1  0.50000000  0.49999051  0.97118678  1
  C  C45  1  0.50000000  0.43762489  0.53800567  1
  C  C46  1  0.50000000  0.43876317  0.69608963  1
  C  C47  1  0.50000000  0.43890533  0.85762983  1
  C  C48  1  0.50000000  0.47107915  0.06031808  1
  C  C49  1  0.50000000  0.46942848  0.55895321  1
  C  C50  1  0.50000000  0.47002973  0.22383817  1
  C  C51  1  0.50000000  0.46941567  0.72284657  1
  C  C52  1  0.50000000  0.47097360  0.38733879  1
  C  C53  1  0.50000000  0.46957660  0.88546773  1
  C  C54  1  0.50000000  0.52903489  0.11233251  1
  C  C55  1  0.50000000  0.53045858  0.61423255  1
  C  C56  1  0.50000000  0.52998933  0.27582222  1
  C  C57  1  0.50000000  0.53060363  0.77688666  1
  C  C58  1  0.50000000  0.52885509  0.43941891  1
  C  C59  1  0.50000000  0.53057364  0.94077011  1
  C  C60  1  0.50000000  0.56111325  0.64211700  1
  C  C61  1  0.50000000  0.56122242  0.80369437  1
  C  C62  1  0.50000000  0.56238366  0.96163219  1
  C  C63  1  0.50000000  0.49992834  0.02813322  1
  C  C64  1  0.50000000  0.50001294  0.52854624  1
  C  C65  1  0.50000000  0.49999577  0.19610961  1
  C  C66  1  0.50000000  0.50001213  0.69568296  1
  C  C67  1  0.50000000  0.50002933  0.35820183  1
  C  C68  1  0.50000000  0.50002749  0.85819704  1
  C  C69  1  0.50000000  0.52878419  0.06026313  1
  C  C70  1  0.50000000  0.53059024  0.55896414  1
  C  C71  1  0.50000000  0.52997392  0.22380539  1
  C  C72  1  0.50000000  0.53061207  0.72283128  1
  C  C73  1  0.50000000  0.52908560  0.38733896  1
  C  C74  1  0.50000000  0.53045267  0.88549706  1
  C  C75  1  0.50000000  0.59251998  0.61729857  1
  C  C76  1  0.50000000  0.59219299  0.77686896  1
  C  C77  1  0.50000000  0.59269385  0.93582599  1
  C  C78  1  0.50000000  0.62321910  0.64319219  1
  C  C79  1  0.50000000  0.62313078  0.80291063  1
  C  C80  1  0.50000000  0.62263589  0.96282025  1
  C  C81  1  0.50000000  0.56238449  0.53802352  1
  C  C82  1  0.50000000  0.56124736  0.69606481  1
  C  C83  1  0.50000000  0.56112069  0.85765640  1
  C  C84  1  0.50000000  0.59266934  0.56391027  1
  C  C85  1  0.50000000  0.59221398  0.72289915  1
  C  C86  1  0.50000000  0.59254425  0.88244003  1
  C  C87  1  0.50000000  0.65385465  0.61577631  1
  C  C88  1  0.50000000  0.65420719  0.77670622  1
  C  C89  1  0.50000000  0.65345874  0.93801783  1
  C  C90  1  0.50000000  0.68500977  0.64139427  1
  C  C91  1  0.50000000  0.68499571  0.80361967  1
  C  C92  1  0.50000000  0.68391421  0.96499985  1
  C  C93  1  0.50000000  0.62262934  0.53697498  1
  C  C94  1  0.50000000  0.62312181  0.69681306  1
  C  C95  1  0.50000000  0.62323765  0.85652502  1
  C  C96  1  0.50000000  0.65344773  0.56169451  1
  C  C97  1  0.50000000  0.65418309  0.72302166  1
  C  C98  1  0.50000000  0.65387028  0.88394488  1
  C  C99  1  0.50000000  0.71444782  0.61284974  1
  C  C100  1  0.50000000  0.71471899  0.77585969  1
  C  C101  1  0.50000000  0.71395480  0.93952001  1
  C  C102  1  0.50000000  0.68387916  0.53461750  1
  C  C103  1  0.50000000  0.68496673  0.69610554  1
  C  C104  1  0.50000000  0.68502698  0.85832265  1
  C  C105  1  0.50000000  0.71390791  0.56012339  1
  C  C106  1  0.50000000  0.71471406  0.72383597  1
  C  C107  1  0.50000000  0.71449823  0.88678302  1
  H  H108  1  0.50000000  0.26133362  0.63161948  1
  H  H109  1  0.50000000  0.26133705  0.79536552  1
  H  H110  1  0.50000000  0.26259974  0.96047201  1
  H  H111  1  0.50000000  0.26251230  0.53946687  1
  H  H112  1  0.50000000  0.26132006  0.70454056  1
  H  H113  1  0.50000000  0.26137965  0.86802832  1
  H  H114  1  0.50000000  0.73866498  0.63151434  1
  H  H115  1  0.50000000  0.73869008  0.79524848  1
  H  H116  1  0.50000000  0.73748050  0.96039255  1
  H  H117  1  0.50000000  0.73747741  0.53937288  1
  H  H118  1  0.50000000  0.73869373  0.70443964  1
  H  H119  1  0.50000000  0.73866809  0.86793513  1
  H  H120  1  0.50000000  0.68308110  0.49345948  1
  H  H121  1  0.50000000  0.31690374  0.49352522  1
  H  H122  1  0.50000000  0.68313186  0.00612880  1
  H  H123  1  0.50000000  0.31693481  0.00620282  1
  H  H124  1  0.50000000  0.62191169  0.00401610  1
  H  H125  1  0.50000000  0.62188102  0.49581186  1
  H  H126  1  0.50000000  0.37816014  0.00402241  1
  H  H127  1  0.50000000  0.37810299  0.49585056  1
  H  H128  1  0.50000000  0.55353091  0.13024291  1
  H  H129  1  0.50000000  0.55393598  0.29532500  1
  H  H130  1  0.50000000  0.55409983  0.45256275  1
  H  H131  1  0.50000000  0.56611127  0.00124609  1
  H  H132  1  0.50000000  0.55404990  0.04717581  1
  H  H133  1  0.50000000  0.55389368  0.20422621  1
  H  H134  1  0.50000000  0.55355883  0.36934699  1
  H  H135  1  0.50000000  0.56603935  0.49835289  1
  H  H136  1  0.50000000  0.43400723  0.00123644  1
  H  H137  1  0.50000000  0.44643909  0.13036919  1
  H  H138  1  0.50000000  0.44610814  0.29537882  1
  H  H139  1  0.50000000  0.44597502  0.45258852  1
  H  H140  1  0.50000000  0.43395186  0.49832986  1
  H  H141  1  0.50000000  0.44576661  0.04738354  1
  H  H142  1  0.50000000  0.44609649  0.20429387  1
  H  H143  1  0.50000000  0.44649860  0.36935809  1
