# generated using pymatgen
data_H3C10
_symmetry_space_group_name_H-M   'P 1'
_cell_length_a   10.00000000
_cell_length_b   41.10890000
_cell_length_c   25.96029014
_cell_angle_alpha   90.00000000
_cell_angle_beta   90.00000000
_cell_angle_gamma   90.00000000
_symmetry_Int_Tables_number   1
_chemical_formula_structural   H3C10
_chemical_formula_sum   'H36 C120'
_cell_volume   10671.98971506
_cell_formula_units_Z   12
loop_
 _symmetry_equiv_pos_site_id
 _symmetry_equiv_pos_as_xyz
  1  'x, y, z'
loop_
 _atom_site_type_symbol
 _atom_site_label
 _atom_site_symmetry_multiplicity
 _atom_site_fract_x
 _atom_site_fract_y
 _atom_site_fract_z
 _atom_site_occupancy
  C  C0  1  0.50000000  0.28893837  0.63819011  1
  C  C1  1  0.50000000  0.29035560  0.97175416  1
  C  C2  1  0.50000000  0.34942592  0.63969220  1
  C  C3  1  0.50000000  0.35019921  0.96979132  1
  C  C4  1  0.50000000  0.40952611  0.64012577  1
  C  C5  1  0.50000000  0.40994483  0.96920946  1
  C  C6  1  0.50000000  0.46953581  0.64012939  1
  C  C7  1  0.50000000  0.46986214  0.96906698  1
  C  C8  1  0.50000000  0.52959971  0.64024281  1
  C  C9  1  0.50000000  0.52991697  0.96880022  1
  C  C10  1  0.50000000  0.58982978  0.63993575  1
  C  C11  1  0.50000000  0.58979086  0.96857142  1
  C  C12  1  0.50000000  0.65081799  0.30762039  1
  C  C13  1  0.50000000  0.64983700  0.63968080  1
  C  C14  1  0.50000000  0.65047405  0.97124811  1
  C  C15  1  0.50000000  0.70899055  0.30684983  1
  C  C16  1  0.50000000  0.71023123  0.63909758  1
  C  C17  1  0.50000000  0.71023870  0.97091919  1
  C  C18  1  0.50000000  0.28879223  0.69459971  1
  C  C19  1  0.50000000  0.34922289  0.69500555  1
  C  C20  1  0.50000000  0.40937092  0.69517773  1
  C  C21  1  0.50000000  0.46947285  0.69522620  1
  C  C22  1  0.50000000  0.52963610  0.69533956  1
  C  C23  1  0.50000000  0.58986811  0.69509208  1
  C  C24  1  0.50000000  0.65173572  0.02498894  1
  C  C25  1  0.50000000  0.65123447  0.36128824  1
  C  C26  1  0.50000000  0.64993207  0.69468168  1
  C  C27  1  0.50000000  0.71010251  0.02521314  1
  C  C28  1  0.50000000  0.70940666  0.36039964  1
  C  C29  1  0.50000000  0.71023768  0.69474836  1
  C  C30  1  0.50000000  0.25972003  0.72332964  1
  C  C31  1  0.50000000  0.31885198  0.72234419  1
  C  C32  1  0.50000000  0.37914979  0.72239810  1
  C  C33  1  0.50000000  0.43942508  0.72247617  1
  C  C34  1  0.50000000  0.49956621  0.72253345  1
  C  C35  1  0.50000000  0.55973950  0.72248306  1
  C  C36  1  0.50000000  0.61986228  0.72238565  1
  C  C37  1  0.50000000  0.68102597  0.05326168  1
  C  C38  1  0.50000000  0.68053167  0.38957663  1
  C  C39  1  0.50000000  0.68015273  0.72227193  1
  C  C40  1  0.50000000  0.73954403  0.72338679  1
  C  C41  1  0.50000000  0.25971987  0.77681523  1
  C  C42  1  0.50000000  0.31885002  0.77777164  1
  C  C43  1  0.50000000  0.37914462  0.77768523  1
  C  C44  1  0.50000000  0.43942511  0.77757037  1
  C  C45  1  0.50000000  0.49957126  0.77748856  1
  C  C46  1  0.50000000  0.55974133  0.77747977  1
  C  C47  1  0.50000000  0.61986333  0.77756409  1
  C  C48  1  0.50000000  0.68054501  0.11037489  1
  C  C49  1  0.50000000  0.68102160  0.44668055  1
  C  C50  1  0.50000000  0.68016579  0.77765768  1
  C  C51  1  0.50000000  0.73955233  0.77648745  1
  C  C52  1  0.50000000  0.28879719  0.80552992  1
  C  C53  1  0.50000000  0.34921819  0.80507381  1
  C  C54  1  0.50000000  0.40936725  0.80487735  1
  C  C55  1  0.50000000  0.46947671  0.80479938  1
  C  C56  1  0.50000000  0.52964977  0.80465228  1
  C  C57  1  0.50000000  0.58987463  0.80486177  1
  C  C58  1  0.50000000  0.65125460  0.13864525  1
  C  C59  1  0.50000000  0.65172321  0.47495541  1
  C  C60  1  0.50000000  0.64993779  0.80524771  1
  C  C61  1  0.50000000  0.70942213  0.13954605  1
  C  C62  1  0.50000000  0.71009657  0.47472989  1
  C  C63  1  0.50000000  0.71025578  0.80516458  1
  C  C64  1  0.50000000  0.29034633  0.52834427  1
  C  C65  1  0.50000000  0.28891870  0.86191510  1
  C  C66  1  0.50000000  0.35020084  0.53027564  1
  C  C67  1  0.50000000  0.34941322  0.86039086  1
  C  C68  1  0.50000000  0.40993224  0.53084812  1
  C  C69  1  0.50000000  0.40952627  0.85993469  1
  C  C70  1  0.50000000  0.46983447  0.53095372  1
  C  C71  1  0.50000000  0.46954481  0.85989494  1
  C  C72  1  0.50000000  0.52988336  0.53119846  1
  C  C73  1  0.50000000  0.52961686  0.85974539  1
  C  C74  1  0.50000000  0.58976406  0.53139706  1
  C  C75  1  0.50000000  0.58984566  0.86002350  1
  C  C76  1  0.50000000  0.65082745  0.19232432  1
  C  C77  1  0.50000000  0.65045305  0.52870084  1
  C  C78  1  0.50000000  0.64985297  0.86025524  1
  C  C79  1  0.50000000  0.70900596  0.19311207  1
  C  C80  1  0.50000000  0.71021746  0.52902186  1
  C  C81  1  0.50000000  0.71024921  0.86082044  1
  C  C82  1  0.50000000  0.26097953  0.55452196  1
  C  C83  1  0.50000000  0.26017882  0.89148585  1
  C  C84  1  0.50000000  0.32010763  0.55608462  1
  C  C85  1  0.50000000  0.31939364  0.88835189  1
  C  C86  1  0.50000000  0.37990874  0.55702829  1
  C  C87  1  0.50000000  0.37949089  0.88731968  1
  C  C88  1  0.50000000  0.43981874  0.55719123  1
  C  C89  1  0.50000000  0.43962609  0.88712737  1
  C  C90  1  0.50000000  0.49975475  0.55729488  1
  C  C91  1  0.50000000  0.49971703  0.88707768  1
  C  C92  1  0.50000000  0.55955330  0.55778568  1
  C  C93  1  0.50000000  0.55972937  0.88687478  1
  C  C94  1  0.50000000  0.61945315  0.55667314  1
  C  C95  1  0.50000000  0.61990734  0.88769002  1
  C  C96  1  0.50000000  0.67975268  0.22146871  1
  C  C97  1  0.50000000  0.68019795  0.55690902  1
  C  C98  1  0.50000000  0.68029821  0.88784875  1
  C  C99  1  0.50000000  0.73995027  0.55743662  1
  C  C100  1  0.50000000  0.73988868  0.88965794  1
  C  C101  1  0.50000000  0.26019326  0.60863476  1
  C  C102  1  0.50000000  0.26097331  0.94560033  1
  C  C103  1  0.50000000  0.31941799  0.61170083  1
  C  C104  1  0.50000000  0.32010195  0.94396665  1
  C  C105  1  0.50000000  0.37949643  0.61274749  1
  C  C106  1  0.50000000  0.37991471  0.94303541  1
  C  C107  1  0.50000000  0.43961813  0.61290737  1
  C  C108  1  0.50000000  0.43983472  0.94284070  1
  C  C109  1  0.50000000  0.49969587  0.61292405  1
  C  C110  1  0.50000000  0.49978127  0.94270657  1
  C  C111  1  0.50000000  0.55970653  0.61309591  1
  C  C112  1  0.50000000  0.55958163  0.94218735  1
  C  C113  1  0.50000000  0.61988805  0.61225329  1
  C  C114  1  0.50000000  0.61947872  0.94327446  1
  C  C115  1  0.50000000  0.67973808  0.27847166  1
  C  C116  1  0.50000000  0.68028191  0.61208585  1
  C  C117  1  0.50000000  0.68021788  0.94302856  1
  C  C118  1  0.50000000  0.73986751  0.61026346  1
  C  C119  1  0.50000000  0.73996653  0.94248524  1
  H  H120  1  0.50000000  0.23623504  0.70344243  1
  H  H121  1  0.50000000  0.76301930  0.70357494  1
  H  H122  1  0.50000000  0.23622586  0.79667821  1
  H  H123  1  0.50000000  0.76302906  0.79627942  1
  H  H124  1  0.50000000  0.23808659  0.53286884  1
  H  H125  1  0.50000000  0.23639818  0.87259195  1
  H  H126  1  0.50000000  0.76302725  0.53623874  1
  H  H127  1  0.50000000  0.76319949  0.86936963  1
  H  H128  1  0.50000000  0.23639588  0.62749617  1
  H  H129  1  0.50000000  0.23808979  0.96728293  1
  H  H130  1  0.50000000  0.76317638  0.63055448  1
  H  H131  1  0.50000000  0.76304545  0.96367963  1
  H  H132  1  0.50000000  0.29110681  0.01401394  1
  H  H133  1  0.50000000  0.35048059  0.01203252  1
  H  H134  1  0.50000000  0.40989348  0.01143331  1
  H  H135  1  0.50000000  0.46986491  0.01129482  1
  H  H136  1  0.50000000  0.53005886  0.01104001  1
  H  H137  1  0.50000000  0.58865898  0.01065473  1
  H  H138  1  0.50000000  0.62707413  0.28847934  1
  H  H139  1  0.50000000  0.73245075  0.28708699  1
  H  H140  1  0.50000000  0.62881731  0.04599643  1
  H  H141  1  0.50000000  0.62773945  0.38108936  1
  H  H142  1  0.50000000  0.73367533  0.04482906  1
  H  H143  1  0.50000000  0.73317732  0.37937425  1
  H  H144  1  0.50000000  0.62776055  0.11884137  1
  H  H145  1  0.50000000  0.62879873  0.45396502  1
  H  H146  1  0.50000000  0.73316922  0.12049865  1
  H  H147  1  0.50000000  0.73368469  0.45512877  1
  H  H148  1  0.50000000  0.29107517  0.48608389  1
  H  H149  1  0.50000000  0.35050561  0.48803366  1
  H  H150  1  0.50000000  0.40989435  0.48862227  1
  H  H151  1  0.50000000  0.46983281  0.48871996  1
  H  H152  1  0.50000000  0.53001645  0.48896116  1
  H  H153  1  0.50000000  0.58863477  0.48932162  1
  H  H154  1  0.50000000  0.62709441  0.21147210  1
  H  H155  1  0.50000000  0.73244395  0.21296369  1
