# generated using pymatgen
data_H19C60
_symmetry_space_group_name_H-M   'P 1'
_cell_length_a   10.00000000
_cell_length_b   41.10890000
_cell_length_c   26.36283482
_cell_angle_alpha   90.00000000
_cell_angle_beta   90.00000000
_cell_angle_gamma   90.00000000
_symmetry_Int_Tables_number   1
_chemical_formula_structural   H19C60
_chemical_formula_sum   'H38 C120'
_cell_volume   10837.47140514
_cell_formula_units_Z   2
loop_
 _symmetry_equiv_pos_site_id
 _symmetry_equiv_pos_as_xyz
  1  'x, y, z'
loop_
 _atom_site_type_symbol
 _atom_site_label
 _atom_site_symmetry_multiplicity
 _atom_site_fract_x
 _atom_site_fract_y
 _atom_site_fract_z
 _atom_site_occupancy
  C  C0  1  0.50000000  0.27580729  0.30483764  1
  C  C1  1  0.50000000  0.29208825  0.63962588  1
  C  C2  1  0.50000000  0.29157865  0.97130871  1
  C  C3  1  0.50000000  0.35200990  0.64063517  1
  C  C4  1  0.50000000  0.35306179  0.96516052  1
  C  C5  1  0.50000000  0.41246107  0.64200271  1
  C  C6  1  0.50000000  0.41233214  0.96508519  1
  C  C7  1  0.50000000  0.47246742  0.64173341  1
  C  C8  1  0.50000000  0.47220588  0.96572166  1
  C  C9  1  0.50000000  0.53249011  0.64169788  1
  C  C10  1  0.50000000  0.53213784  0.96601186  1
  C  C11  1  0.50000000  0.59249818  0.64172462  1
  C  C12  1  0.50000000  0.59202566  0.96624620  1
  C  C13  1  0.50000000  0.65255893  0.64151310  1
  C  C14  1  0.50000000  0.65183919  0.96669612  1
  C  C15  1  0.50000000  0.71301475  0.64041817  1
  C  C16  1  0.50000000  0.71170877  0.96817562  1
  C  C17  1  0.50000000  0.28756979  0.02784540  1
  C  C18  1  0.50000000  0.27816721  0.36097845  1
  C  C19  1  0.50000000  0.29191584  0.69504030  1
  C  C20  1  0.50000000  0.35195344  0.69528403  1
  C  C21  1  0.50000000  0.41226125  0.69612046  1
  C  C22  1  0.50000000  0.47241365  0.69602939  1
  C  C23  1  0.50000000  0.53251546  0.69604052  1
  C  C24  1  0.50000000  0.59258672  0.69601653  1
  C  C25  1  0.50000000  0.65267105  0.69600510  1
  C  C26  1  0.50000000  0.71303611  0.69580510  1
  C  C27  1  0.50000000  0.25635372  0.05156699  1
  C  C28  1  0.50000000  0.25186501  0.39552255  1
  C  C29  1  0.50000000  0.26284694  0.72337103  1
  C  C30  1  0.50000000  0.31323134  0.06355583  1
  C  C31  1  0.50000000  0.30896347  0.38407555  1
  C  C32  1  0.50000000  0.32186878  0.72247318  1
  C  C33  1  0.50000000  0.38191065  0.72254690  1
  C  C34  1  0.50000000  0.44236552  0.72283830  1
  C  C35  1  0.50000000  0.50245968  0.72290521  1
  C  C36  1  0.50000000  0.56254476  0.72292225  1
  C  C37  1  0.50000000  0.62273628  0.72291993  1
  C  C38  1  0.50000000  0.68295421  0.72299408  1
  C  C39  1  0.50000000  0.74207675  0.72405669  1
  C  C40  1  0.50000000  0.25168840  0.10420603  1
  C  C41  1  0.50000000  0.25652575  0.44815591  1
  C  C42  1  0.50000000  0.26282580  0.77605533  1
  C  C43  1  0.50000000  0.30875482  0.11561301  1
  C  C44  1  0.50000000  0.31341666  0.43615906  1
  C  C45  1  0.50000000  0.32183461  0.77707758  1
  C  C46  1  0.50000000  0.38187235  0.77711240  1
  C  C47  1  0.50000000  0.44232616  0.77697725  1
  C  C48  1  0.50000000  0.50242812  0.77709359  1
  C  C49  1  0.50000000  0.56251814  0.77723685  1
  C  C50  1  0.50000000  0.62271461  0.77740826  1
  C  C51  1  0.50000000  0.68293498  0.77754745  1
  C  C52  1  0.50000000  0.74205394  0.77666318  1
  C  C53  1  0.50000000  0.27796828  0.13872514  1
  C  C54  1  0.50000000  0.28773873  0.47179658  1
  C  C55  1  0.50000000  0.29185671  0.80445040  1
  C  C56  1  0.50000000  0.35188805  0.80431925  1
  C  C57  1  0.50000000  0.41218697  0.80360304  1
  C  C58  1  0.50000000  0.47234668  0.80387417  1
  C  C59  1  0.50000000  0.53245581  0.80404219  1
  C  C60  1  0.50000000  0.59253485  0.80422930  1
  C  C61  1  0.50000000  0.65262126  0.80442844  1
  C  C62  1  0.50000000  0.71298565  0.80484194  1
  C  C63  1  0.50000000  0.27562236  0.19484492  1
  C  C64  1  0.50000000  0.29176431  0.52829885  1
  C  C65  1  0.50000000  0.29194476  0.85988493  1
  C  C66  1  0.50000000  0.35330864  0.53436346  1
  C  C67  1  0.50000000  0.35188186  0.85896899  1
  C  C68  1  0.50000000  0.41257483  0.53457386  1
  C  C69  1  0.50000000  0.41232783  0.85771299  1
  C  C70  1  0.50000000  0.47246990  0.53416722  1
  C  C71  1  0.50000000  0.47233867  0.85816507  1
  C  C72  1  0.50000000  0.53239145  0.53409501  1
  C  C73  1  0.50000000  0.53236748  0.85839011  1
  C  C74  1  0.50000000  0.59226924  0.53402707  1
  C  C75  1  0.50000000  0.59238746  0.85853009  1
  C  C76  1  0.50000000  0.65209115  0.53378080  1
  C  C77  1  0.50000000  0.65245293  0.85892608  1
  C  C78  1  0.50000000  0.71199153  0.53253463  1
  C  C79  1  0.50000000  0.71291235  0.86025160  1
  C  C80  1  0.50000000  0.24651959  0.22331926  1
  C  C81  1  0.50000000  0.26343063  0.55816679  1
  C  C82  1  0.50000000  0.26308029  0.88859995  1
  C  C83  1  0.50000000  0.30459191  0.22347778  1
  C  C84  1  0.50000000  0.32233079  0.55680642  1
  C  C85  1  0.50000000  0.32182445  0.88715516  1
  C  C86  1  0.50000000  0.38282709  0.56099435  1
  C  C87  1  0.50000000  0.38223393  0.88437202  1
  C  C88  1  0.50000000  0.44257824  0.56018852  1
  C  C89  1  0.50000000  0.44227248  0.88475102  1
  C  C90  1  0.50000000  0.50245817  0.56000783  1
  C  C91  1  0.50000000  0.50230135  0.88513230  1
  C  C92  1  0.50000000  0.56237249  0.55997711  1
  C  C93  1  0.50000000  0.56233286  0.88530475  1
  C  C94  1  0.50000000  0.62227845  0.55990340  1
  C  C95  1  0.50000000  0.62242617  0.88554142  1
  C  C96  1  0.50000000  0.68208751  0.55947377  1
  C  C97  1  0.50000000  0.68247168  0.88636026  1
  C  C98  1  0.50000000  0.74129628  0.55847637  1
  C  C99  1  0.50000000  0.74172776  0.88909601  1
  C  C100  1  0.50000000  0.24661522  0.27660020  1
  C  C101  1  0.50000000  0.26319625  0.61099119  1
  C  C102  1  0.50000000  0.26325425  0.94142472  1
  C  C103  1  0.50000000  0.30467658  0.27591645  1
  C  C104  1  0.50000000  0.32198412  0.61237608  1
  C  C105  1  0.50000000  0.32211862  0.94270181  1
  C  C106  1  0.50000000  0.38239075  0.61527460  1
  C  C107  1  0.50000000  0.38261408  0.93863734  1
  C  C108  1  0.50000000  0.44243479  0.61503580  1
  C  C109  1  0.50000000  0.44236078  0.93958272  1
  C  C110  1  0.50000000  0.50246105  0.61486889  1
  C  C111  1  0.50000000  0.50223368  0.93999831  1
  C  C112  1  0.50000000  0.56247942  0.61487231  1
  C  C113  1  0.50000000  0.56215605  0.94020944  1
  C  C114  1  0.50000000  0.62256439  0.61480818  1
  C  C115  1  0.50000000  0.62206868  0.94045472  1
  C  C116  1  0.50000000  0.68261560  0.61418596  1
  C  C117  1  0.50000000  0.68186193  0.94107936  1
  C  C118  1  0.50000000  0.74188999  0.61174652  1
  C  C119  1  0.50000000  0.74106272  0.94237456  1
  H  H120  1  0.50000000  0.23420065  0.02862056  1
  H  H121  1  0.50000000  0.22674003  0.38156791  1
  H  H122  1  0.50000000  0.23931222  0.70402014  1
  H  H123  1  0.50000000  0.76562433  0.70474847  1
  H  H124  1  0.50000000  0.22659980  0.11834252  1
  H  H125  1  0.50000000  0.23446291  0.47133288  1
  H  H126  1  0.50000000  0.23931664  0.79548109  1
  H  H127  1  0.50000000  0.76557137  0.79606269  1
  H  H128  1  0.50000000  0.22296476  0.20384817  1
  H  H129  1  0.50000000  0.23970177  0.53953591  1
  H  H130  1  0.50000000  0.23942300  0.86964819  1
  H  H131  1  0.50000000  0.76420326  0.53722418  1
  H  H132  1  0.50000000  0.76540526  0.87018543  1
  H  H133  1  0.50000000  0.22317257  0.29639613  1
  H  H134  1  0.50000000  0.23956943  0.63007695  1
  H  H135  1  0.50000000  0.23949965  0.95998084  1
  H  H136  1  0.50000000  0.76552297  0.63083427  1
  H  H137  1  0.50000000  0.76394243  0.96373673  1
  H  H138  1  0.50000000  0.35607832  0.00570749  1
  H  H139  1  0.50000000  0.41208237  0.00666965  1
  H  H140  1  0.50000000  0.47210283  0.00731686  1
  H  H141  1  0.50000000  0.53206625  0.00761987  1
  H  H142  1  0.50000000  0.59191737  0.00786559  1
  H  H143  1  0.50000000  0.65167674  0.00832142  1
  H  H144  1  0.50000000  0.71104629  0.00974712  1
  H  H145  1  0.50000000  0.33854759  0.05273442  1
  H  H146  1  0.50000000  0.33119253  0.36140842  1
  H  H147  1  0.50000000  0.33093903  0.13839267  1
  H  H148  1  0.50000000  0.33867778  0.44721516  1
  H  H149  1  0.50000000  0.35648117  0.49379739  1
  H  H150  1  0.50000000  0.41234887  0.49294668  1
  H  H151  1  0.50000000  0.47245270  0.49256821  1
  H  H152  1  0.50000000  0.53241173  0.49249049  1
  H  H153  1  0.50000000  0.59217970  0.49241160  1
  H  H154  1  0.50000000  0.65192805  0.49218059  1
  H  H155  1  0.50000000  0.71144019  0.49097900  1
  H  H156  1  0.50000000  0.32830256  0.20486770  1
  H  H157  1  0.50000000  0.32848028  0.29421364  1
