# generated using pymatgen
data_HC3
_symmetry_space_group_name_H-M   'P 1'
_cell_length_a   20.00000000
_cell_length_b   37.22700000
_cell_length_c   26.06138052
_cell_angle_alpha   90.00000000
_cell_angle_beta   90.00000000
_cell_angle_gamma   90.00000000
_symmetry_Int_Tables_number   1
_chemical_formula_structural   HC3
_chemical_formula_sum   'H34 C102'
_cell_volume   19403.74025204
_cell_formula_units_Z   34
loop_
 _symmetry_equiv_pos_site_id
 _symmetry_equiv_pos_as_xyz
  1  'x, y, z'
loop_
 _atom_site_type_symbol
 _atom_site_label
 _atom_site_symmetry_multiplicity
 _atom_site_fract_x
 _atom_site_fract_y
 _atom_site_fract_z
 _atom_site_occupancy
  C  C0  1  0.50000000  0.31771011  0.22157434  1
  C  C1  1  0.50000001  0.31758193  0.55630798  1
  C  C2  1  0.50000000  0.31766260  0.88783292  1
  C  C3  1  0.50000000  0.38459750  0.55691228  1
  C  C4  1  0.50000000  0.38418796  0.88782130  1
  C  C5  1  0.49999999  0.45071238  0.55822146  1
  C  C6  1  0.50000000  0.45051176  0.88664218  1
  C  C7  1  0.50000000  0.51673370  0.55777701  1
  C  C8  1  0.50000000  0.51676283  0.88669627  1
  C  C9  1  0.50000000  0.58288628  0.55755791  1
  C  C10  1  0.50000000  0.58314162  0.88685700  1
  C  C11  1  0.50000000  0.64893496  0.55708734  1
  C  C12  1  0.50000000  0.64945360  0.88760842  1
  C  C13  1  0.49999999  0.71433965  0.55605705  1
  C  C14  1  0.49999997  0.71488501  0.89009046  1
  C  C15  1  0.50000000  0.31770176  0.27844406  1
  C  C16  1  0.50000001  0.31765215  0.61217992  1
  C  C17  1  0.50000000  0.31757607  0.94369744  1
  C  C18  1  0.50000000  0.38419159  0.61220163  1
  C  C19  1  0.50000001  0.38459008  0.94310702  1
  C  C20  1  0.50000000  0.45052171  0.61335746  1
  C  C21  1  0.50000000  0.45069358  0.94176896  1
  C  C22  1  0.50000000  0.51677971  0.61329303  1
  C  C23  1  0.49999999  0.51670778  0.94219287  1
  C  C24  1  0.50000000  0.58316547  0.61313080  1
  C  C25  1  0.49999999  0.58284652  0.94239921  1
  C  C26  1  0.50000000  0.64948532  0.61243456  1
  C  C27  1  0.50000001  0.64890650  0.94293770  1
  C  C28  1  0.49999999  0.71494040  0.60991440  1
  C  C29  1  0.49999998  0.71429129  0.94394068  1
  C  C30  1  0.50000006  0.28558896  0.30712933  1
  C  C31  1  0.50000003  0.28551712  0.64054278  1
  C  C32  1  0.50000000  0.28537476  0.97242715  1
  C  C33  1  0.49999995  0.34986510  0.30710167  1
  C  C34  1  0.50000000  0.35085551  0.63961620  1
  C  C35  1  0.50000000  0.35050665  0.97128821  1
  C  C36  1  0.50000000  0.41724918  0.64001789  1
  C  C37  1  0.50000001  0.41753627  0.96825516  1
  C  C38  1  0.50000000  0.48378891  0.64052870  1
  C  C39  1  0.49999999  0.48356950  0.96826120  1
  C  C40  1  0.50000000  0.55000704  0.64044254  1
  C  C41  1  0.49999997  0.54970661  0.96851888  1
  C  C42  1  0.50000000  0.61627548  0.64014599  1
  C  C43  1  0.50000000  0.61575049  0.96889272  1
  C  C44  1  0.50000000  0.68303448  0.63893266  1
  C  C45  1  0.50000000  0.68191722  0.97023392  1
  C  C46  1  0.50000000  0.28516524  0.02552958  1
  C  C47  1  0.50000006  0.28564165  0.36060599  1
  C  C48  1  0.50000002  0.28545993  0.69366505  1
  C  C49  1  0.50000000  0.34949970  0.02537900  1
  C  C50  1  0.49999996  0.34992042  0.36055587  1
  C  C51  1  0.50000000  0.35077969  0.69481612  1
  C  C52  1  0.50000000  0.41714490  0.69521459  1
  C  C53  1  0.50000000  0.48370651  0.69544348  1
  C  C54  1  0.50000000  0.55005073  0.69527612  1
  C  C55  1  0.50000001  0.61637485  0.69522340  1
  C  C56  1  0.50000000  0.68306979  0.69493576  1
  C  C57  1  0.49999999  0.31761932  0.05383597  1
  C  C58  1  0.50000001  0.31778548  0.38924891  1
  C  C59  1  0.50000000  0.31763653  0.72216233  1
  C  C60  1  0.49999999  0.38405711  0.72249185  1
  C  C61  1  0.50000000  0.45037134  0.72258682  1
  C  C62  1  0.50000000  0.51684749  0.72256346  1
  C  C63  1  0.50000001  0.58334075  0.72248422  1
  C  C64  1  0.50000001  0.64987544  0.72245910  1
  C  C65  1  0.50000001  0.71520236  0.72343789  1
  C  C66  1  0.49999999  0.31778472  0.11072058  1
  C  C67  1  0.50000001  0.31762480  0.44616241  1
  C  C68  1  0.49999999  0.31763262  0.77786994  1
  C  C69  1  0.50000000  0.38405556  0.77752680  1
  C  C70  1  0.50000000  0.45036661  0.77742955  1
  C  C71  1  0.50000001  0.51684218  0.77746589  1
  C  C72  1  0.50000001  0.58333842  0.77757503  1
  C  C73  1  0.50000000  0.64986533  0.77758760  1
  C  C74  1  0.50000001  0.71518300  0.77662207  1
  C  C75  1  0.50000002  0.28566608  0.13939871  1
  C  C76  1  0.49999999  0.28517529  0.47449078  1
  C  C77  1  0.50000000  0.28545949  0.80636090  1
  C  C78  1  0.49999995  0.34989820  0.13943563  1
  C  C79  1  0.50000002  0.34949941  0.47462885  1
  C  C80  1  0.50000000  0.35077923  0.80520027  1
  C  C81  1  0.50000000  0.41714029  0.80479654  1
  C  C82  1  0.50000000  0.48369892  0.80457034  1
  C  C83  1  0.50000000  0.55004269  0.80475210  1
  C  C84  1  0.50000000  0.61636832  0.80481928  1
  C  C85  1  0.50000000  0.68304707  0.80510292  1
  C  C86  1  0.50000002  0.28561396  0.19285705  1
  C  C87  1  0.50000000  0.28537555  0.52759816  1
  C  C88  1  0.50000001  0.28550866  0.85945949  1
  C  C89  1  0.49999996  0.34984360  0.19286575  1
  C  C90  1  0.50000001  0.35052530  0.52869498  1
  C  C91  1  0.50000000  0.35085408  0.86039727  1
  C  C92  1  0.49999999  0.41754915  0.53173838  1
  C  C93  1  0.50000000  0.41724172  0.85999590  1
  C  C94  1  0.49999999  0.48358943  0.53172460  1
  C  C95  1  0.50000000  0.48377488  0.85947623  1
  C  C96  1  0.50000000  0.54973734  0.53143930  1
  C  C97  1  0.50000000  0.54998933  0.85957134  1
  C  C98  1  0.50000000  0.61579937  0.53106552  1
  C  C99  1  0.50000000  0.61625730  0.85988736  1
  C  C100  1  0.50000000  0.68194823  0.52981031  1
  C  C101  1  0.49999999  0.68299163  0.86109319  1
  H  H102  1  0.49999998  0.73972019  0.53472988  1
  H  H103  1  0.49999994  0.74094194  0.87074228  1
  H  H104  1  0.49999997  0.74101555  0.62922197  1
  H  H105  1  0.49999996  0.73973761  0.96507843  1
  H  H106  1  0.50000013  0.25962397  0.28743602  1
  H  H107  1  0.50000006  0.25967595  0.62064233  1
  H  H108  1  0.49999999  0.25951197  0.95261015  1
  H  H109  1  0.49999999  0.25922867  0.04521629  1
  H  H110  1  0.50000011  0.25970792  0.38035125  1
  H  H111  1  0.50000004  0.25954464  0.71335022  1
  H  H112  1  0.50000003  0.74112311  0.70368142  1
  H  H113  1  0.50000003  0.74108716  0.79640165  1
  H  H114  1  0.50000005  0.25967678  0.11984248  1
  H  H115  1  0.49999998  0.25923670  0.45483474  1
  H  H116  1  0.50000000  0.25954610  0.78669080  1
  H  H117  1  0.50000004  0.25957738  0.21230516  1
  H  H118  1  0.49999999  0.25952070  0.54742570  1
  H  H119  1  0.50000003  0.25968678  0.87936443  1
  H  H120  1  0.49999990  0.37582492  0.28737792  1
  H  H121  1  0.50000003  0.41886588  0.01019113  1
  H  H122  1  0.49999997  0.48344153  0.01034239  1
  H  H123  1  0.49999994  0.54965818  0.01058221  1
  H  H124  1  0.50000000  0.61566125  0.01096389  1
  H  H125  1  0.50000002  0.68117862  0.01228614  1
  H  H126  1  0.50000000  0.37497342  0.04594774  1
  H  H127  1  0.49999992  0.37598155  0.38005731  1
  H  H128  1  0.49999991  0.37602383  0.12013559  1
  H  H129  1  0.50000005  0.37494657  0.45391887  1
  H  H130  1  0.49999992  0.37590333  0.21228899  1
  H  H131  1  0.49999996  0.41885712  0.48980005  1
  H  H132  1  0.49999999  0.48346955  0.48963110  1
  H  H133  1  0.50000001  0.54970136  0.48934852  1
  H  H134  1  0.50000001  0.61574512  0.48894965  1
  H  H135  1  0.50000000  0.68119708  0.48775326  1
