# generated using pymatgen
data_H17C54
_symmetry_space_group_name_H-M   'P 1'
_cell_length_a   20.00000000
_cell_length_b   40.19450000
_cell_length_c   25.99622369
_cell_angle_alpha   90.00000000
_cell_angle_beta   90.00000000
_cell_angle_gamma   90.00000000
_symmetry_Int_Tables_number   1
_chemical_formula_structural   H17C54
_chemical_formula_sum   'H34 C108'
_cell_volume   20898.10426118
_cell_formula_units_Z   2
loop_
 _symmetry_equiv_pos_site_id
 _symmetry_equiv_pos_as_xyz
  1  'x, y, z'
loop_
 _atom_site_type_symbol
 _atom_site_label
 _atom_site_symmetry_multiplicity
 _atom_site_fract_x
 _atom_site_fract_y
 _atom_site_fract_z
 _atom_site_occupancy
  C  C0  1  0.50000000  0.28554042  0.61036771  1
  C  C1  1  0.50000000  0.28599809  0.77638942  1
  C  C2  1  0.50000000  0.28540522  0.94225384  1
  C  C3  1  0.50000000  0.31571229  0.13912063  1
  C  C4  1  0.50000000  0.31589862  0.63909231  1
  C  C5  1  0.50000000  0.31568277  0.30692376  1
  C  C6  1  0.50000000  0.31591336  0.80504864  1
  C  C7  1  0.50000000  0.31564808  0.47488988  1
  C  C8  1  0.50000000  0.31579317  0.97067771  1
  C  C9  1  0.50000000  0.28534099  0.55763841  1
  C  C10  1  0.50000000  0.28604109  0.72333912  1
  C  C11  1  0.50000000  0.28554056  0.88950813  1
  C  C12  1  0.50000000  0.34545701  0.11034166  1
  C  C13  1  0.50000000  0.34646650  0.61195952  1
  C  C14  1  0.50000000  0.34547126  0.27828307  1
  C  C15  1  0.50000000  0.34668218  0.77755527  1
  C  C16  1  0.50000000  0.34525598  0.44651686  1
  C  C17  1  0.50000000  0.34652588  0.94290113  1
  C  C18  1  0.50000000  0.37518688  0.13910406  1
  C  C19  1  0.50000000  0.37757449  0.63956904  1
  C  C20  1  0.50000000  0.37519276  0.30705393  1
  C  C21  1  0.50000000  0.37752582  0.80516932  1
  C  C22  1  0.50000000  0.37534604  0.47463685  1
  C  C23  1  0.50000000  0.37688546  0.97123333  1
  C  C24  1  0.50000000  0.31579886  0.02486960  1
  C  C25  1  0.50000000  0.31569557  0.52910749  1
  C  C26  1  0.50000000  0.31574005  0.19267786  1
  C  C27  1  0.50000000  0.31594950  0.69471067  1
  C  C28  1  0.50000000  0.31560740  0.36049626  1
  C  C29  1  0.50000000  0.31588539  0.86068710  1
  C  C30  1  0.50000000  0.34541997  0.05318262  1
  C  C31  1  0.50000000  0.34646485  0.55683862  1
  C  C32  1  0.50000000  0.34549676  0.22137935  1
  C  C33  1  0.50000000  0.34669367  0.72219250  1
  C  C34  1  0.50000000  0.34532724  0.38934090  1
  C  C35  1  0.50000000  0.34647968  0.88777847  1
  C  C36  1  0.50000000  0.40814427  0.61208017  1
  C  C37  1  0.50000000  0.40823294  0.77741061  1
  C  C38  1  0.50000000  0.40860710  0.94319843  1
  C  C39  1  0.50000000  0.43892931  0.63979925  1
  C  C40  1  0.50000000  0.43893904  0.80468133  1
  C  C41  1  0.50000000  0.43899579  0.96837942  1
  C  C42  1  0.50000000  0.37550303  0.02503839  1
  C  C43  1  0.50000000  0.37679818  0.52841773  1
  C  C44  1  0.50000000  0.37523901  0.19267805  1
  C  C45  1  0.50000000  0.37752534  0.69456274  1
  C  C46  1  0.50000000  0.37508411  0.36062502  1
  C  C47  1  0.50000000  0.37760672  0.86018779  1
  C  C48  1  0.50000000  0.40854408  0.55643879  1
  C  C49  1  0.50000000  0.40823307  0.72227335  1
  C  C50  1  0.50000000  0.40818628  0.88759507  1
  C  C51  1  0.50000000  0.46967659  0.61297620  1
  C  C52  1  0.50000000  0.46973137  0.77730827  1
  C  C53  1  0.50000000  0.46989282  0.94194193  1
  C  C54  1  0.50000000  0.50050046  0.64014681  1
  C  C55  1  0.50000000  0.50054717  0.80447481  1
  C  C56  1  0.50000000  0.50023019  0.96842202  1
  C  C57  1  0.50000000  0.43890844  0.53122967  1
  C  C58  1  0.50000000  0.43892591  0.69497166  1
  C  C59  1  0.50000000  0.43896527  0.85984954  1
  C  C60  1  0.50000000  0.46980456  0.55767587  1
  C  C61  1  0.50000000  0.46971994  0.72234073  1
  C  C62  1  0.50000000  0.46973339  0.88664858  1
  C  C63  1  0.50000000  0.53108719  0.61289143  1
  C  C64  1  0.50000000  0.53131894  0.77731125  1
  C  C65  1  0.50000000  0.53106180  0.94233458  1
  C  C66  1  0.50000000  0.56190246  0.64003618  1
  C  C67  1  0.50000000  0.56206994  0.80457988  1
  C  C68  1  0.50000000  0.56155893  0.96869327  1
  C  C69  1  0.50000000  0.50013383  0.53121087  1
  C  C70  1  0.50000000  0.50051900  0.69516586  1
  C  C71  1  0.50000000  0.50056064  0.85948837  1
  C  C72  1  0.50000000  0.53097357  0.55728931  1
  C  C73  1  0.50000000  0.53129635  0.72231337  1
  C  C74  1  0.50000000  0.53116071  0.88673694  1
  C  C75  1  0.50000000  0.59257625  0.61266322  1
  C  C76  1  0.50000000  0.59295366  0.77739244  1
  C  C77  1  0.50000000  0.59229196  0.94253292  1
  C  C78  1  0.50000000  0.62333017  0.63958396  1
  C  C79  1  0.50000000  0.62353871  0.80475034  1
  C  C80  1  0.50000000  0.62271451  0.96913181  1
  C  C81  1  0.50000000  0.56146932  0.53092564  1
  C  C82  1  0.50000000  0.56202842  0.69501685  1
  C  C83  1  0.50000000  0.56196506  0.85955897  1
  C  C84  1  0.50000000  0.59221543  0.55704380  1
  C  C85  1  0.50000000  0.59292599  0.72216886  1
  C  C86  1  0.50000000  0.59264308  0.88691805  1
  C  C87  1  0.50000000  0.65399132  0.61172565  1
  C  C88  1  0.50000000  0.65451804  0.77740484  1
  C  C89  1  0.50000000  0.65344633  0.94323076  1
  C  C90  1  0.50000000  0.68511485  0.63823484  1
  C  C91  1  0.50000000  0.68524238  0.80502242  1
  C  C92  1  0.50000000  0.68395035  0.97074885  1
  C  C93  1  0.50000000  0.62261990  0.53037660  1
  C  C94  1  0.50000000  0.62349591  0.69479018  1
  C  C95  1  0.50000000  0.62339394  0.85995942  1
  C  C96  1  0.50000000  0.65336244  0.55624545  1
  C  C97  1  0.50000000  0.65448638  0.72208998  1
  C  C98  1  0.50000000  0.65407946  0.88775229  1
  C  C99  1  0.50000000  0.71456426  0.60900749  1
  C  C100  1  0.50000000  0.71495023  0.77635007  1
  C  C101  1  0.50000000  0.71394725  0.94451304  1
  C  C102  1  0.50000000  0.68388653  0.52877320  1
  C  C103  1  0.50000000  0.68518032  0.69440733  1
  C  C104  1  0.50000000  0.68520197  0.86120857  1
  C  C105  1  0.50000000  0.71389330  0.55499201  1
  C  C106  1  0.50000000  0.71491192  0.72299180  1
  C  C107  1  0.50000000  0.71463124  0.89049710  1
  H  H108  1  0.50000000  0.26170416  0.63064999  1
  H  H109  1  0.50000000  0.26198475  0.79615776  1
  H  H110  1  0.50000000  0.26179980  0.96347605  1
  H  H111  1  0.50000000  0.26168389  0.53655699  1
  H  H112  1  0.50000000  0.26209023  0.70342368  1
  H  H113  1  0.50000000  0.26166489  0.86936829  1
  H  H114  1  0.50000000  0.73877346  0.62816053  1
  H  H115  1  0.50000000  0.73892324  0.79622679  1
  H  H116  1  0.50000000  0.73748959  0.96577783  1
  H  H117  1  0.50000000  0.73738215  0.53358281  1
  H  H118  1  0.50000000  0.73886035  0.70304651  1
  H  H119  1  0.50000000  0.73890046  0.87152198  1
  H  H120  1  0.50000000  0.68318490  0.48661787  1
  H  H121  1  0.50000000  0.29150558  0.11985583  1
  H  H122  1  0.50000000  0.29160069  0.28727503  1
  H  H123  1  0.50000000  0.29144346  0.45554919  1
  H  H124  1  0.50000000  0.29160581  0.04423042  1
  H  H125  1  0.50000000  0.29164571  0.21227163  1
  H  H126  1  0.50000000  0.29141878  0.37980608  1
  H  H127  1  0.50000000  0.68321781  0.01290281  1
  H  H128  1  0.50000000  0.62232283  0.48820593  1
  H  H129  1  0.50000000  0.62248780  0.01129213  1
  H  H130  1  0.50000000  0.56163082  0.01085271  1
  H  H131  1  0.50000000  0.56154176  0.48876632  1
  H  H132  1  0.50000000  0.50015567  0.01059964  1
  H  H133  1  0.50000000  0.50000913  0.48904249  1
  H  H134  1  0.50000000  0.44027298  0.01043050  1
  H  H135  1  0.50000000  0.44007891  0.48919040  1
  H  H136  1  0.50000000  0.39933506  0.11971318  1
  H  H137  1  0.50000000  0.39935411  0.28767849  1
  H  H138  1  0.50000000  0.39870495  0.45331408  1
  H  H139  1  0.50000000  0.39888632  0.04627086  1
  H  H140  1  0.50000000  0.39933357  0.21222395  1
  H  H141  1  0.50000000  0.39922674  0.38002928  1
