# generated using pymatgen
data_HC3
_symmetry_space_group_name_H-M   'P 1'
_cell_length_a   20.00000000
_cell_length_b   40.19450000
_cell_length_c   26.74965738
_cell_angle_alpha   90.00000000
_cell_angle_beta   90.00000000
_cell_angle_gamma   90.00000000
_symmetry_Int_Tables_number   1
_chemical_formula_structural   HC3
_chemical_formula_sum   'H36 C108'
_cell_volume   21503.78207481
_cell_formula_units_Z   36
loop_
 _symmetry_equiv_pos_site_id
 _symmetry_equiv_pos_as_xyz
  1  'x, y, z'
loop_
 _atom_site_type_symbol
 _atom_site_label
 _atom_site_symmetry_multiplicity
 _atom_site_fract_x
 _atom_site_fract_y
 _atom_site_fract_z
 _atom_site_occupancy
  C  C0  1  0.50000000  0.28532361  0.61524709  1
  C  C1  1  0.50000000  0.28557241  0.77563338  1
  C  C2  1  0.50000000  0.28545863  0.93709449  1
  C  C3  1  0.50000000  0.31506116  0.64302412  1
  C  C4  1  0.50000000  0.31544407  0.80276862  1
  C  C5  1  0.50000000  0.31544653  0.96254561  1
  C  C6  1  0.50000000  0.28544819  0.56286105  1
  C  C7  1  0.50000000  0.28559420  0.72411926  1
  C  C8  1  0.50000000  0.28528794  0.88470806  1
  C  C9  1  0.50000000  0.34599011  0.61733517  1
  C  C10  1  0.50000000  0.34648062  0.77675982  1
  C  C11  1  0.50000000  0.34580508  0.93551670  1
  C  C12  1  0.50000000  0.37745491  0.64223744  1
  C  C13  1  0.50000000  0.37740463  0.80369606  1
  C  C14  1  0.50000000  0.37609561  0.96124779  1
  C  C15  1  0.50000000  0.31544734  0.53739145  1
  C  C16  1  0.50000000  0.31547855  0.69705579  1
  C  C17  1  0.50000000  0.31500675  0.85684387  1
  C  C18  1  0.50000000  0.34582364  0.56435057  1
  C  C19  1  0.50000000  0.34648855  0.72309840  1
  C  C20  1  0.50000000  0.34594783  0.88253410  1
  C  C21  1  0.50000000  0.40991974  0.11197584  1
  C  C22  1  0.50000000  0.40800923  0.61446981  1
  C  C23  1  0.50000000  0.40915444  0.27572687  1
  C  C24  1  0.50000000  0.40790005  0.77694807  1
  C  C25  1  0.50000000  0.40995857  0.43962885  1
  C  C26  1  0.50000000  0.40795346  0.94036168  1
  C  C27  1  0.50000000  0.43899379  0.14113430  1
  C  C28  1  0.50000000  0.43854794  0.64180976  1
  C  C29  1  0.50000000  0.43902271  0.30372216  1
  C  C30  1  0.50000000  0.43856017  0.80402495  1
  C  C31  1  0.50000000  0.43868177  0.47197540  1
  C  C32  1  0.50000000  0.43861025  0.97068018  1
  C  C33  1  0.50000000  0.37608603  0.53852675  1
  C  C34  1  0.50000000  0.37742903  0.69617388  1
  C  C35  1  0.50000000  0.37743365  0.85763285  1
  C  C36  1  0.50000000  0.41003119  0.05997564  1
  C  C37  1  0.50000000  0.40794654  0.55941183  1
  C  C38  1  0.50000000  0.40916675  0.22383336  1
  C  C39  1  0.50000000  0.40790325  0.72292567  1
  C  C40  1  0.50000000  0.40986605  0.38761355  1
  C  C41  1  0.50000000  0.40800983  0.88533966  1
  C  C42  1  0.50000000  0.46794394  0.11166593  1
  C  C43  1  0.50000000  0.46891488  0.61467022  1
  C  C44  1  0.50000000  0.46891634  0.27576374  1
  C  C45  1  0.50000000  0.46907579  0.77683124  1
  C  C46  1  0.50000000  0.46756116  0.43994042  1
  C  C47  1  0.50000000  0.46915055  0.94023335  1
  C  C48  1  0.50000000  0.49963627  0.64255414  1
  C  C49  1  0.50000000  0.49971522  0.80351855  1
  C  C50  1  0.50000000  0.50104886  0.96085450  1
  C  C51  1  0.50000000  0.43872752  0.02768212  1
  C  C52  1  0.50000000  0.43857667  0.52904226  1
  C  C53  1  0.50000000  0.43904771  0.19588532  1
  C  C54  1  0.50000000  0.43854569  0.69583453  1
  C  C55  1  0.50000000  0.43895457  0.35847563  1
  C  C56  1  0.50000000  0.43856308  0.85803334  1
  C  C57  1  0.50000000  0.46758021  0.05967233  1
  C  C58  1  0.50000000  0.46908584  0.55957253  1
  C  C59  1  0.50000000  0.46892346  0.22385208  1
  C  C60  1  0.50000000  0.46905854  0.72301998  1
  C  C61  1  0.50000000  0.46789909  0.38794025  1
  C  C62  1  0.50000000  0.46893420  0.88514599  1
  C  C63  1  0.50000000  0.53093707  0.61802466  1
  C  C64  1  0.50000000  0.53054885  0.77672129  1
  C  C65  1  0.50000000  0.53132024  0.93494197  1
  C  C66  1  0.50000000  0.56159560  0.64408177  1
  C  C67  1  0.50000000  0.56160589  0.80254304  1
  C  C68  1  0.50000000  0.56138722  0.96140391  1
  C  C69  1  0.50000000  0.50096131  0.53895507  1
  C  C70  1  0.50000000  0.49969712  0.69632764  1
  C  C71  1  0.50000000  0.49965039  0.85728261  1
  C  C72  1  0.50000000  0.53122723  0.56482704  1
  C  C73  1  0.50000000  0.53053877  0.72313327  1
  C  C74  1  0.50000000  0.53100501  0.88176299  1
  C  C75  1  0.50000000  0.59226993  0.61726446  1
  C  C76  1  0.50000000  0.59262458  0.77658367  1
  C  C77  1  0.50000000  0.59218504  0.93646414  1
  C  C78  1  0.50000000  0.62306802  0.64310260  1
  C  C79  1  0.50000000  0.62327463  0.80306232  1
  C  C80  1  0.50000000  0.62242019  0.96269310  1
  C  C81  1  0.50000000  0.56126969  0.53832489  1
  C  C82  1  0.50000000  0.56155787  0.69726452  1
  C  C83  1  0.50000000  0.56169191  0.85571548  1
  C  C84  1  0.50000000  0.59204048  0.56329317  1
  C  C85  1  0.50000000  0.59261048  0.72322153  1
  C  C86  1  0.50000000  0.59239400  0.88249827  1
  C  C87  1  0.50000000  0.65366279  0.61588340  1
  C  C88  1  0.50000000  0.65428420  0.77666713  1
  C  C89  1  0.50000000  0.65318661  0.93773808  1
  C  C90  1  0.50000000  0.68486577  0.64140788  1
  C  C91  1  0.50000000  0.68504137  0.80355951  1
  C  C92  1  0.50000000  0.68362779  0.96466713  1
  C  C93  1  0.50000000  0.62224709  0.53704674  1
  C  C94  1  0.50000000  0.62321925  0.69667587  1
  C  C95  1  0.50000000  0.62317915  0.85663984  1
  C  C96  1  0.50000000  0.65300953  0.56198249  1
  C  C97  1  0.50000000  0.65423394  0.72298682  1
  C  C98  1  0.50000000  0.65379674  0.88381775  1
  C  C99  1  0.50000000  0.71422900  0.61276559  1
  C  C100  1  0.50000000  0.71474168  0.77574088  1
  C  C101  1  0.50000000  0.71367827  0.93933126  1
  C  C102  1  0.50000000  0.68339167  0.53494491  1
  C  C103  1  0.50000000  0.68499634  0.69605050  1
  C  C104  1  0.50000000  0.68497837  0.85820549  1
  C  C105  1  0.50000000  0.71346351  0.56020485  1
  C  C106  1  0.50000000  0.71470613  0.72384142  1
  C  C107  1  0.50000000  0.71438202  0.88676500  1
  H  H108  1  0.50000000  0.26125491  0.63426716  1
  H  H109  1  0.50000000  0.26163974  0.79498289  1
  H  H110  1  0.50000000  0.26179151  0.95744635  1
  H  H111  1  0.50000000  0.26180034  0.54244480  1
  H  H112  1  0.50000000  0.26170107  0.70469152  1
  H  H113  1  0.50000000  0.26117128  0.86581192  1
  H  H114  1  0.50000000  0.73845512  0.63139253  1
  H  H115  1  0.50000000  0.73877442  0.79495593  1
  H  H116  1  0.50000000  0.73713977  0.96026132  1
  H  H117  1  0.50000000  0.73685115  0.53913611  1
  H  H118  1  0.50000000  0.73871401  0.70458409  1
  H  H119  1  0.50000000  0.73861512  0.86816067  1
  H  H120  1  0.50000000  0.68246770  0.49398764  1
  H  H121  1  0.50000000  0.31626778  0.49642439  1
  H  H122  1  0.50000000  0.68273074  0.00562804  1
  H  H123  1  0.50000000  0.31623017  0.00352966  1
  H  H124  1  0.50000000  0.62186102  0.00368281  1
  H  H125  1  0.50000000  0.62167018  0.49605677  1
  H  H126  1  0.50000000  0.37251405  0.00076715  1
  H  H127  1  0.50000000  0.38534534  0.12961447  1
  H  H128  1  0.50000000  0.38507877  0.29481324  1
  H  H129  1  0.50000000  0.38467689  0.45269861  1
  H  H130  1  0.50000000  0.37250066  0.49899547  1
  H  H131  1  0.50000000  0.38480816  0.04671332  1
  H  H132  1  0.50000000  0.38511722  0.20467458  1
  H  H133  1  0.50000000  0.38533380  0.36980877  1
  H  H134  1  0.50000000  0.56091027  0.00238001  1
  H  H135  1  0.50000000  0.56082682  0.49732569  1
  H  H136  1  0.50000000  0.49263118  0.12896459  1
  H  H137  1  0.50000000  0.49300839  0.29484372  1
  H  H138  1  0.50000000  0.49278953  0.45331702  1
  H  H139  1  0.50000000  0.50479311  0.00034002  1
  H  H140  1  0.50000000  0.49276195  0.04616990  1
  H  H141  1  0.50000000  0.49300721  0.20473821  1
  H  H142  1  0.50000000  0.49254963  0.37047157  1
  H  H143  1  0.50000000  0.50465780  0.49946485  1
