# generated using pymatgen
data_H19C60
_symmetry_space_group_name_H-M   'P 1'
_cell_length_a   10.00000000
_cell_length_b   41.10890000
_cell_length_c   26.74237411
_cell_angle_alpha   90.00000000
_cell_angle_beta   90.00000000
_cell_angle_gamma   90.00000000
_symmetry_Int_Tables_number   1
_chemical_formula_structural   H19C60
_chemical_formula_sum   'H38 C120'
_cell_volume   10993.49583029
_cell_formula_units_Z   2
loop_
 _symmetry_equiv_pos_site_id
 _symmetry_equiv_pos_as_xyz
  1  'x, y, z'
loop_
 _atom_site_type_symbol
 _atom_site_label
 _atom_site_symmetry_multiplicity
 _atom_site_fract_x
 _atom_site_fract_y
 _atom_site_fract_z
 _atom_site_occupancy
  C  C0  1  0.50000000  0.28895056  0.64151837  1
  C  C1  1  0.50000000  0.29014880  0.96482764  1
  C  C2  1  0.50000000  0.34939286  0.64281667  1
  C  C3  1  0.50000000  0.35003956  0.96334250  1
  C  C4  1  0.50000000  0.40945718  0.64318492  1
  C  C5  1  0.50000000  0.40981493  0.96291153  1
  C  C6  1  0.50000000  0.46947145  0.64336045  1
  C  C7  1  0.50000000  0.46976272  0.96265018  1
  C  C8  1  0.50000000  0.52954700  0.64391986  1
  C  C9  1  0.50000000  0.52973350  0.96180313  1
  C  C10  1  0.50000000  0.59018511  0.64240911  1
  C  C11  1  0.50000000  0.58895522  0.96145197  1
  C  C12  1  0.50000000  0.65064847  0.30396474  1
  C  C13  1  0.50000000  0.64980767  0.64148018  1
  C  C14  1  0.50000000  0.65032141  0.97101818  1
  C  C15  1  0.50000000  0.70959494  0.64214739  1
  C  C16  1  0.50000000  0.71234648  0.96107857  1
  C  C17  1  0.50000000  0.28891669  0.69616463  1
  C  C18  1  0.50000000  0.34924851  0.69651591  1
  C  C19  1  0.50000000  0.40932967  0.69667320  1
  C  C20  1  0.50000000  0.46943244  0.69685692  1
  C  C21  1  0.50000000  0.52967553  0.69724850  1
  C  C22  1  0.50000000  0.59007611  0.69619617  1
  C  C23  1  0.50000000  0.65018195  0.02817993  1
  C  C24  1  0.50000000  0.65060659  0.35882886  1
  C  C25  1  0.50000000  0.64961301  0.69560911  1
  C  C26  1  0.50000000  0.70923863  0.69652858  1
  C  C27  1  0.50000000  0.25989388  0.72402839  1
  C  C28  1  0.50000000  0.31895328  0.72305386  1
  C  C29  1  0.50000000  0.37915723  0.72311594  1
  C  C30  1  0.50000000  0.43936903  0.72323896  1
  C  C31  1  0.50000000  0.49949663  0.72338801  1
  C  C32  1  0.50000000  0.55997964  0.72315440  1
  C  C33  1  0.50000000  0.62206820  0.06033189  1
  C  C34  1  0.50000000  0.62210277  0.38771163  1
  C  C35  1  0.50000000  0.61995704  0.72296504  1
  C  C36  1  0.50000000  0.67845900  0.05983380  1
  C  C37  1  0.50000000  0.67892105  0.38817517  1
  C  C38  1  0.50000000  0.67939975  0.72307734  1
  C  C39  1  0.50000000  0.73833501  0.72424976  1
  C  C40  1  0.50000000  0.25988809  0.77589364  1
  C  C41  1  0.50000000  0.31895493  0.77684734  1
  C  C42  1  0.50000000  0.37915989  0.77682041  1
  C  C43  1  0.50000000  0.43937236  0.77672916  1
  C  C44  1  0.50000000  0.49950009  0.77660945  1
  C  C45  1  0.50000000  0.55997605  0.77682266  1
  C  C46  1  0.50000000  0.62209705  0.11237727  1
  C  C47  1  0.50000000  0.62208289  0.43974862  1
  C  C48  1  0.50000000  0.61994622  0.77705067  1
  C  C49  1  0.50000000  0.67891974  0.11188153  1
  C  C50  1  0.50000000  0.67848111  0.44021347  1
  C  C51  1  0.50000000  0.67937491  0.77691030  1
  C  C52  1  0.50000000  0.73829338  0.77584240  1
  C  C53  1  0.50000000  0.28892445  0.80376035  1
  C  C54  1  0.50000000  0.34924790  0.80340903  1
  C  C55  1  0.50000000  0.40933273  0.80328358  1
  C  C56  1  0.50000000  0.46943247  0.80312641  1
  C  C57  1  0.50000000  0.52968361  0.80274640  1
  C  C58  1  0.50000000  0.59006054  0.80380383  1
  C  C59  1  0.50000000  0.65061100  0.14124474  1
  C  C60  1  0.50000000  0.65020998  0.47187485  1
  C  C61  1  0.50000000  0.64959411  0.80440505  1
  C  C62  1  0.50000000  0.70918676  0.80347674  1
  C  C63  1  0.50000000  0.29015238  0.53509784  1
  C  C64  1  0.50000000  0.28896988  0.85840504  1
  C  C65  1  0.50000000  0.35004624  0.53661842  1
  C  C66  1  0.50000000  0.34939988  0.85711465  1
  C  C67  1  0.50000000  0.40983223  0.53704704  1
  C  C68  1  0.50000000  0.40946335  0.85677712  1
  C  C69  1  0.50000000  0.46978004  0.53735603  1
  C  C70  1  0.50000000  0.46947457  0.85662002  1
  C  C71  1  0.50000000  0.52976193  0.53820573  1
  C  C72  1  0.50000000  0.52956570  0.85608340  1
  C  C73  1  0.50000000  0.58898590  0.53861339  1
  C  C74  1  0.50000000  0.59014381  0.85760267  1
  C  C75  1  0.50000000  0.65064787  0.19612005  1
  C  C76  1  0.50000000  0.65035322  0.52901319  1
  C  C77  1  0.50000000  0.64977960  0.85854761  1
  C  C78  1  0.50000000  0.71236269  0.53895503  1
  C  C79  1  0.50000000  0.70955921  0.85782171  1
  C  C80  1  0.50000000  0.26080197  0.56055028  1
  C  C81  1  0.50000000  0.26016118  0.88684920  1
  C  C82  1  0.50000000  0.32000079  0.56182474  1
  C  C83  1  0.50000000  0.31939835  0.88417656  1
  C  C84  1  0.50000000  0.37980575  0.56250762  1
  C  C85  1  0.50000000  0.37943923  0.88334696  1
  C  C86  1  0.50000000  0.43971160  0.56268988  1
  C  C87  1  0.50000000  0.43953832  0.88318234  1
  C  C88  1  0.50000000  0.49960116  0.56317572  1
  C  C89  1  0.50000000  0.49960861  0.88279283  1
  C  C90  1  0.50000000  0.55931269  0.56454535  1
  C  C91  1  0.50000000  0.55958995  0.88222466  1
  C  C92  1  0.50000000  0.62147946  0.22407451  1
  C  C93  1  0.50000000  0.62029114  0.55922792  1
  C  C94  1  0.50000000  0.62025302  0.88565307  1
  C  C95  1  0.50000000  0.67981258  0.22406069  1
  C  C96  1  0.50000000  0.68042516  0.55924910  1
  C  C97  1  0.50000000  0.67982082  0.88605111  1
  C  C98  1  0.50000000  0.74093157  0.56637369  1
  C  C99  1  0.50000000  0.73981604  0.88202033  1
  C  C100  1  0.50000000  0.26014566  0.61307674  1
  C  C101  1  0.50000000  0.26079454  0.93938184  1
  C  C102  1  0.50000000  0.31939237  0.61574954  1
  C  C103  1  0.50000000  0.32000199  0.93812387  1
  C  C104  1  0.50000000  0.37943719  0.61659915  1
  C  C105  1  0.50000000  0.37979611  0.93744322  1
  C  C106  1  0.50000000  0.43953816  0.61679554  1
  C  C107  1  0.50000000  0.43970072  0.93729109  1
  C  C108  1  0.50000000  0.49960583  0.61719251  1
  C  C109  1  0.50000000  0.49958173  0.93681382  1
  C  C110  1  0.50000000  0.55960119  0.61781343  1
  C  C111  1  0.50000000  0.55929143  0.93549542  1
  C  C112  1  0.50000000  0.62147840  0.27601977  1
  C  C113  1  0.50000000  0.62028938  0.61436580  1
  C  C114  1  0.50000000  0.62025390  0.94080650  1
  C  C115  1  0.50000000  0.67980966  0.27602739  1
  C  C116  1  0.50000000  0.67984550  0.61397300  1
  C  C117  1  0.50000000  0.68040108  0.94079131  1
  C  C118  1  0.50000000  0.73986294  0.61794140  1
  C  C119  1  0.50000000  0.74088498  0.93358061  1
  H  H120  1  0.50000000  0.23637532  0.70491963  1
  H  H121  1  0.50000000  0.76195154  0.70565782  1
  H  H122  1  0.50000000  0.23639174  0.79509052  1
  H  H123  1  0.50000000  0.76187531  0.79452848  1
  H  H124  1  0.50000000  0.23786948  0.53961111  1
  H  H125  1  0.50000000  0.23648894  0.86820538  1
  H  H126  1  0.50000000  0.76429934  0.54664778  1
  H  H127  1  0.50000000  0.76256287  0.86107843  1
  H  H128  1  0.50000000  0.23647698  0.63172744  1
  H  H129  1  0.50000000  0.23784263  0.96028899  1
  H  H130  1  0.50000000  0.76261370  0.63887260  1
  H  H131  1  0.50000000  0.76427689  0.95320159  1
  H  H132  1  0.50000000  0.29082031  0.00579063  1
  H  H133  1  0.50000000  0.35028330  0.00436467  1
  H  H134  1  0.50000000  0.40973751  0.00393439  1
  H  H135  1  0.50000000  0.46987600  0.00368359  1
  H  H136  1  0.50000000  0.53010250  0.00281416  1
  H  H137  1  0.50000000  0.58524734  0.00097487  1
  H  H138  1  0.50000000  0.71662764  0.00051999  1
  H  H139  1  0.50000000  0.59735390  0.04719363  1
  H  H140  1  0.50000000  0.59822523  0.36952833  1
  H  H141  1  0.50000000  0.70288991  0.04563413  1
  H  H142  1  0.50000000  0.70295815  0.37053916  1
  H  H143  1  0.50000000  0.59823304  0.13060438  1
  H  H144  1  0.50000000  0.59736314  0.45287242  1
  H  H145  1  0.50000000  0.70296010  0.12952626  1
  H  H146  1  0.50000000  0.70293025  0.45435117  1
  H  H147  1  0.50000000  0.29080583  0.49412154  1
  H  H148  1  0.50000000  0.35032716  0.49559056  1
  H  H149  1  0.50000000  0.40977167  0.49602226  1
  H  H150  1  0.50000000  0.46989146  0.49633159  1
  H  H151  1  0.50000000  0.53012446  0.49718827  1
  H  H152  1  0.50000000  0.58526854  0.49910126  1
  H  H153  1  0.50000000  0.71657421  0.49950959  1
  H  H154  1  0.50000000  0.59793493  0.20501331  1
  H  H155  1  0.50000000  0.70330364  0.20487771  1
  H  H156  1  0.50000000  0.59793692  0.29508866  1
  H  H157  1  0.50000000  0.70329597  0.29522785  1
