# generated using pymatgen
data_H8C21
_symmetry_space_group_name_H-M   'P 1'
_cell_length_a   10.00000000
_cell_length_b   41.10890000
_cell_length_c   26.35532140
_cell_angle_alpha   90.00000000
_cell_angle_beta   90.00000000
_cell_angle_gamma   90.00000000
_symmetry_Int_Tables_number   1
_chemical_formula_structural   H8C21
_chemical_formula_sum   'H48 C126'
_cell_volume   10834.38271874
_cell_formula_units_Z   6
loop_
 _symmetry_equiv_pos_site_id
 _symmetry_equiv_pos_as_xyz
  1  'x, y, z'
loop_
 _atom_site_type_symbol
 _atom_site_label
 _atom_site_symmetry_multiplicity
 _atom_site_fract_x
 _atom_site_fract_y
 _atom_site_fract_z
 _atom_site_occupancy
  C  C0  1  0.50000000  0.28827032  0.30859820  1
  C  C1  1  0.50000000  0.28978234  0.64067021  1
  C  C2  1  0.50000000  0.28886047  0.96945692  1
  C  C3  1  0.50000000  0.34971675  0.64126074  1
  C  C4  1  0.50000000  0.34981557  0.96586508  1
  C  C5  1  0.50000000  0.40989398  0.64172368  1
  C  C6  1  0.50000000  0.40971487  0.96584704  1
  C  C7  1  0.50000000  0.46995731  0.64158445  1
  C  C8  1  0.50000000  0.46989692  0.96605107  1
  C  C9  1  0.50000000  0.53004272  0.64158445  1
  C  C10  1  0.50000000  0.53010310  0.96605107  1
  C  C11  1  0.50000000  0.59010604  0.64172368  1
  C  C12  1  0.50000000  0.59028515  0.96584704  1
  C  C13  1  0.50000000  0.65028327  0.64126074  1
  C  C14  1  0.50000000  0.65018445  0.96586508  1
  C  C15  1  0.50000000  0.71172970  0.30859820  1
  C  C16  1  0.50000000  0.71021769  0.64067021  1
  C  C17  1  0.50000000  0.71113955  0.96945692  1
  C  C18  1  0.50000000  0.28775800  0.02257764  1
  C  C19  1  0.50000000  0.28801830  0.36131897  1
  C  C20  1  0.50000000  0.28959319  0.69538438  1
  C  C21  1  0.50000000  0.34968117  0.69567337  1
  C  C22  1  0.50000000  0.40981343  0.69599221  1
  C  C23  1  0.50000000  0.46993527  0.69595739  1
  C  C24  1  0.50000000  0.53006475  0.69595739  1
  C  C25  1  0.50000000  0.59018659  0.69599222  1
  C  C26  1  0.50000000  0.65031885  0.69567337  1
  C  C27  1  0.50000000  0.71224202  0.02257764  1
  C  C28  1  0.50000000  0.71198172  0.36131897  1
  C  C29  1  0.50000000  0.71040683  0.69538438  1
  C  C30  1  0.50000000  0.25996545  0.05387319  1
  C  C31  1  0.50000000  0.26023838  0.39318590  1
  C  C32  1  0.50000000  0.26029247  0.72387572  1
  C  C33  1  0.50000000  0.31958866  0.72277795  1
  C  C34  1  0.50000000  0.37971110  0.72280327  1
  C  C35  1  0.50000000  0.43992785  0.72290175  1
  C  C36  1  0.50000000  0.50000001  0.72289927  1
  C  C37  1  0.50000000  0.56007217  0.72290175  1
  C  C38  1  0.50000000  0.62028893  0.72280328  1
  C  C39  1  0.50000000  0.68041136  0.72277795  1
  C  C40  1  0.50000000  0.74003457  0.05387319  1
  C  C41  1  0.50000000  0.73976164  0.39318590  1
  C  C42  1  0.50000000  0.73970755  0.72387573  1
  C  C43  1  0.50000000  0.26017273  0.10674640  1
  C  C44  1  0.50000000  0.25996141  0.44606778  1
  C  C45  1  0.50000000  0.26028765  0.77618258  1
  C  C46  1  0.50000000  0.31958487  0.77726594  1
  C  C47  1  0.50000000  0.37970704  0.77722781  1
  C  C48  1  0.50000000  0.43992511  0.77712294  1
  C  C49  1  0.50000000  0.50000001  0.77711707  1
  C  C50  1  0.50000000  0.56007491  0.77712294  1
  C  C51  1  0.50000000  0.62029298  0.77722782  1
  C  C52  1  0.50000000  0.68041515  0.77726594  1
  C  C53  1  0.50000000  0.73982729  0.10674640  1
  C  C54  1  0.50000000  0.74003861  0.44606778  1
  C  C55  1  0.50000000  0.73971237  0.77618258  1
  C  C56  1  0.50000000  0.28794520  0.13862465  1
  C  C57  1  0.50000000  0.28771474  0.47745175  1
  C  C58  1  0.50000000  0.28958146  0.80465096  1
  C  C59  1  0.50000000  0.34967175  0.80435854  1
  C  C60  1  0.50000000  0.40981022  0.80402929  1
  C  C61  1  0.50000000  0.46993535  0.80405026  1
  C  C62  1  0.50000000  0.53006467  0.80405026  1
  C  C63  1  0.50000000  0.59018980  0.80402929  1
  C  C64  1  0.50000000  0.65032827  0.80435854  1
  C  C65  1  0.50000000  0.71205481  0.13862465  1
  C  C66  1  0.50000000  0.71228528  0.47745175  1
  C  C67  1  0.50000000  0.71041856  0.80465097  1
  C  C68  1  0.50000000  0.28823895  0.19134840  1
  C  C69  1  0.50000000  0.28881786  0.53058911  1
  C  C70  1  0.50000000  0.28975263  0.85935456  1
  C  C71  1  0.50000000  0.34977933  0.53416235  1
  C  C72  1  0.50000000  0.34970770  0.85876420  1
  C  C73  1  0.50000000  0.40969872  0.53413316  1
  C  C74  1  0.50000000  0.40989185  0.85828658  1
  C  C75  1  0.50000000  0.46989255  0.53394153  1
  C  C76  1  0.50000000  0.46995771  0.85841785  1
  C  C77  1  0.50000000  0.53010747  0.53394153  1
  C  C78  1  0.50000000  0.53004232  0.85841785  1
  C  C79  1  0.50000000  0.59030131  0.53413316  1
  C  C80  1  0.50000000  0.59010817  0.85828658  1
  C  C81  1  0.50000000  0.65022070  0.53416235  1
  C  C82  1  0.50000000  0.65029233  0.85876420  1
  C  C83  1  0.50000000  0.71176106  0.19134840  1
  C  C84  1  0.50000000  0.71118216  0.53058911  1
  C  C85  1  0.50000000  0.71024739  0.85935456  1
  C  C86  1  0.50000000  0.26063579  0.22365444  1
  C  C87  1  0.50000000  0.25963649  0.56031029  1
  C  C88  1  0.50000000  0.26000326  0.88791344  1
  C  C89  1  0.50000000  0.31985338  0.55855964  1
  C  C90  1  0.50000000  0.31950222  0.88620493  1
  C  C91  1  0.50000000  0.38004156  0.56024266  1
  C  C92  1  0.50000000  0.37981233  0.88509504  1
  C  C93  1  0.50000000  0.43998418  0.55987181  1
  C  C94  1  0.50000000  0.43992073  0.88525351  1
  C  C95  1  0.50000000  0.50000001  0.55979840  1
  C  C96  1  0.50000000  0.50000001  0.88532434  1
  C  C97  1  0.50000000  0.56001585  0.55987181  1
  C  C98  1  0.50000000  0.56007929  0.88525352  1
  C  C99  1  0.50000000  0.61995846  0.56024266  1
  C  C100  1  0.50000000  0.62018769  0.88509504  1
  C  C101  1  0.50000000  0.68014664  0.55855964  1
  C  C102  1  0.50000000  0.68049780  0.88620493  1
  C  C103  1  0.50000000  0.73936423  0.22365444  1
  C  C104  1  0.50000000  0.74036353  0.56031029  1
  C  C105  1  0.50000000  0.73999676  0.88791345  1
  C  C106  1  0.50000000  0.26065683  0.27630533  1
  C  C107  1  0.50000000  0.26003274  0.61213346  1
  C  C108  1  0.50000000  0.25964662  0.93979360  1
  C  C109  1  0.50000000  0.31951485  0.61382303  1
  C  C110  1  0.50000000  0.31988345  0.94149890  1
  C  C111  1  0.50000000  0.37981302  0.61491078  1
  C  C112  1  0.50000000  0.38005387  0.93975608  1
  C  C113  1  0.50000000  0.43991929  0.61473788  1
  C  C114  1  0.50000000  0.43999327  0.94011027  1
  C  C115  1  0.50000000  0.50000001  0.61466909  1
  C  C116  1  0.50000000  0.50000001  0.94018845  1
  C  C117  1  0.50000000  0.56008073  0.61473788  1
  C  C118  1  0.50000000  0.56000675  0.94011027  1
  C  C119  1  0.50000000  0.62018700  0.61491078  1
  C  C120  1  0.50000000  0.61994615  0.93975608  1
  C  C121  1  0.50000000  0.68048518  0.61382303  1
  C  C122  1  0.50000000  0.68011657  0.94149890  1
  C  C123  1  0.50000000  0.73934319  0.27630533  1
  C  C124  1  0.50000000  0.73996728  0.61213346  1
  C  C125  1  0.50000000  0.74035340  0.93979360  1
  H  H126  1  0.50000000  0.23588100  0.03589547  1
  H  H127  1  0.50000000  0.23634954  0.37452793  1
  H  H128  1  0.50000000  0.23678803  0.70448425  1
  H  H129  1  0.50000000  0.76411901  0.03589548  1
  H  H130  1  0.50000000  0.76365048  0.37452793  1
  H  H131  1  0.50000000  0.76321199  0.70448426  1
  H  H132  1  0.50000000  0.23623419  0.12519656  1
  H  H133  1  0.50000000  0.23583677  0.46391598  1
  H  H134  1  0.50000000  0.23680343  0.79564985  1
  H  H135  1  0.50000000  0.76376582  0.12519657  1
  H  H136  1  0.50000000  0.76416325  0.46391598  1
  H  H137  1  0.50000000  0.76319659  0.79564986  1
  H  H138  1  0.50000000  0.23661106  0.20541571  1
  H  H139  1  0.50000000  0.23608533  0.54094566  1
  H  H140  1  0.50000000  0.23673883  0.86780196  1
  H  H141  1  0.50000000  0.76338896  0.20541571  1
  H  H142  1  0.50000000  0.76391469  0.54094566  1
  H  H143  1  0.50000000  0.76326119  0.86780197  1
  H  H144  1  0.50000000  0.23662292  0.29447371  1
  H  H145  1  0.50000000  0.23673919  0.63216615  1
  H  H146  1  0.50000000  0.23616703  0.95936675  1
  H  H147  1  0.50000000  0.76337709  0.29447371  1
  H  H148  1  0.50000000  0.76326083  0.63216615  1
  H  H149  1  0.50000000  0.76383299  0.95936676  1
  H  H150  1  0.50000000  0.31237671  0.29060209  1
  H  H151  1  0.50000000  0.35110030  0.00733981  1
  H  H152  1  0.50000000  0.40959510  0.00747842  1
  H  H153  1  0.50000000  0.46986624  0.00769345  1
  H  H154  1  0.50000000  0.53013377  0.00769345  1
  H  H155  1  0.50000000  0.59040492  0.00747842  1
  H  H156  1  0.50000000  0.64889972  0.00733982  1
  H  H157  1  0.50000000  0.68762331  0.29060209  1
  H  H158  1  0.50000000  0.31107201  0.04256976  1
  H  H159  1  0.50000000  0.31202505  0.37960795  1
  H  H160  1  0.50000000  0.68892801  0.04256976  1
  H  H161  1  0.50000000  0.68797497  0.37960796  1
  H  H162  1  0.50000000  0.31190724  0.12017741  1
  H  H163  1  0.50000000  0.31106764  0.45758195  1
  H  H164  1  0.50000000  0.68809277  0.12017741  1
  H  H165  1  0.50000000  0.68893239  0.45758195  1
  H  H166  1  0.50000000  0.31235163  0.20931455  1
  H  H167  1  0.50000000  0.35107786  0.49266795  1
  H  H168  1  0.50000000  0.40956433  0.49249234  1
  H  H169  1  0.50000000  0.46985339  0.49229754  1
  H  H170  1  0.50000000  0.53014663  0.49229754  1
  H  H171  1  0.50000000  0.59043570  0.49249234  1
  H  H172  1  0.50000000  0.64892216  0.49266795  1
  H  H173  1  0.50000000  0.68764839  0.20931456  1
