# generated using pymatgen
data_H17C57
_symmetry_space_group_name_H-M   'P 1'
_cell_length_a   20.00000000
_cell_length_b   40.19450000
_cell_length_c   26.17979483
_cell_angle_alpha   90.00000000
_cell_angle_beta   90.00000000
_cell_angle_gamma   90.00000000
_symmetry_Int_Tables_number   1
_chemical_formula_structural   H17C57
_chemical_formula_sum   'H34 C114'
_cell_volume   21045.67526387
_cell_formula_units_Z   2
loop_
 _symmetry_equiv_pos_site_id
 _symmetry_equiv_pos_as_xyz
  1  'x, y, z'
loop_
 _atom_site_type_symbol
 _atom_site_label
 _atom_site_symmetry_multiplicity
 _atom_site_fract_x
 _atom_site_fract_y
 _atom_site_fract_z
 _atom_site_occupancy
  C  C0  1  0.50000000  0.28374805  0.61566403  1
  C  C1  1  0.50000000  0.28535039  0.77619270  1
  C  C2  1  0.50000000  0.28249807  0.93668330  1
  C  C3  1  0.50000000  0.31464149  0.64047993  1
  C  C4  1  0.50000000  0.31520736  0.80406875  1
  C  C5  1  0.50000000  0.31183199  0.96459919  1
  C  C6  1  0.50000000  0.28252814  0.56309782  1
  C  C7  1  0.50000000  0.28532645  0.72368016  1
  C  C8  1  0.50000000  0.28374653  0.88410927  1
  C  C9  1  0.50000000  0.35200175  0.11459506  1
  C  C10  1  0.50000000  0.34505823  0.61199343  1
  C  C11  1  0.50000000  0.35357381  0.27602723  1
  C  C12  1  0.50000000  0.34584173  0.77729985  1
  C  C13  1  0.50000000  0.34962322  0.43727927  1
  C  C14  1  0.50000000  0.34407360  0.94300209  1
  C  C15  1  0.50000000  0.38280715  0.14055320  1
  C  C16  1  0.50000000  0.37609024  0.63949092  1
  C  C17  1  0.50000000  0.38376402  0.30435853  1
  C  C18  1  0.50000000  0.37639512  0.80519253  1
  C  C19  1  0.50000000  0.37739344  0.47135447  1
  C  C20  1  0.50000000  0.37544128  0.97261992  1
  C  C21  1  0.50000000  0.31187255  0.53524166  1
  C  C22  1  0.50000000  0.31516978  0.69575867  1
  C  C23  1  0.50000000  0.31465562  0.85933970  1
  C  C24  1  0.50000000  0.34957646  0.06260280  1
  C  C25  1  0.50000000  0.34409425  0.55685575  1
  C  C26  1  0.50000000  0.35357925  0.22387983  1
  C  C27  1  0.50000000  0.34582475  0.72251959  1
  C  C28  1  0.50000000  0.35205622  0.38529921  1
  C  C29  1  0.50000000  0.34506038  0.88786233  1
  C  C30  1  0.50000000  0.41203535  0.11025093  1
  C  C31  1  0.50000000  0.40632854  0.61171372  1
  C  C32  1  0.50000000  0.41468531  0.27785537  1
  C  C33  1  0.50000000  0.40681779  0.77756675  1
  C  C34  1  0.50000000  0.40923132  0.44575247  1
  C  C35  1  0.50000000  0.40589652  0.94382715  1
  C  C36  1  0.50000000  0.44271438  0.13797004  1
  C  C37  1  0.50000000  0.43726062  0.63963701  1
  C  C38  1  0.50000000  0.44390273  0.30891977  1
  C  C39  1  0.50000000  0.43741336  0.80519219  1
  C  C40  1  0.50000000  0.43785655  0.47630253  1
  C  C41  1  0.50000000  0.43725771  0.97040169  1
  C  C42  1  0.50000000  0.37735949  0.02851847  1
  C  C43  1  0.50000000  0.37544989  0.52725068  1
  C  C44  1  0.50000000  0.38376089  0.19554288  1
  C  C45  1  0.50000000  0.37638459  0.69464277  1
  C  C46  1  0.50000000  0.38284746  0.35934625  1
  C  C47  1  0.50000000  0.37609926  0.86035714  1
  C  C48  1  0.50000000  0.40918797  0.05412458  1
  C  C49  1  0.50000000  0.40588722  0.55605409  1
  C  C50  1  0.50000000  0.41468196  0.22203727  1
  C  C51  1  0.50000000  0.40680893  0.72228206  1
  C  C52  1  0.50000000  0.41208072  0.38962796  1
  C  C53  1  0.50000000  0.40633744  0.88815832  1
  C  C54  1  0.50000000  0.46815845  0.61300614  1
  C  C55  1  0.50000000  0.46807682  0.77736146  1
  C  C56  1  0.50000000  0.46867603  0.94183714  1
  C  C57  1  0.50000000  0.49886992  0.64069903  1
  C  C58  1  0.50000000  0.49886811  0.80436582  1
  C  C59  1  0.50000000  0.49914217  0.96667500  1
  C  C60  1  0.50000000  0.43783136  0.02357574  1
  C  C61  1  0.50000000  0.43722343  0.52947185  1
  C  C62  1  0.50000000  0.44387927  0.19094680  1
  C  C63  1  0.50000000  0.43740179  0.69466560  1
  C  C64  1  0.50000000  0.44275214  0.36190050  1
  C  C65  1  0.50000000  0.43727863  0.86023060  1
  C  C66  1  0.50000000  0.46863986  0.55803734  1
  C  C67  1  0.50000000  0.46806626  0.72249162  1
  C  C68  1  0.50000000  0.46819056  0.88685634  1
  C  C69  1  0.50000000  0.52972758  0.61421994  1
  C  C70  1  0.50000000  0.52969797  0.77723586  1
  C  C71  1  0.50000000  0.52996453  0.94049044  1
  C  C72  1  0.50000000  0.56052246  0.64108801  1
  C  C73  1  0.50000000  0.56056578  0.80412059  1
  C  C74  1  0.50000000  0.56023532  0.96695006  1
  C  C75  1  0.50000000  0.49908949  0.53317459  1
  C  C76  1  0.50000000  0.49884789  0.69548839  1
  C  C77  1  0.50000000  0.49891499  0.85916355  1
  C  C78  1  0.50000000  0.52988093  0.55935573  1
  C  C79  1  0.50000000  0.52968213  0.72257356  1
  C  C80  1  0.50000000  0.52980536  0.88560642  1
  C  C81  1  0.50000000  0.59117908  0.61377640  1
  C  C82  1  0.50000000  0.59148001  0.77721317  1
  C  C83  1  0.50000000  0.59107979  0.94113675  1
  C  C84  1  0.50000000  0.62196319  0.64048848  1
  C  C85  1  0.50000000  0.62209648  0.80434137  1
  C  C86  1  0.50000000  0.62149010  0.96759419  1
  C  C87  1  0.50000000  0.56009754  0.53281047  1
  C  C88  1  0.50000000  0.56052900  0.69563029  1
  C  C89  1  0.50000000  0.56059280  0.85866630  1
  C  C90  1  0.50000000  0.59095055  0.55854933  1
  C  C91  1  0.50000000  0.59146519  0.72246206  1
  C  C92  1  0.50000000  0.59127714  0.88590783  1
  C  C93  1  0.50000000  0.65262164  0.61284528  1
  C  C94  1  0.50000000  0.65307477  0.77721033  1
  C  C95  1  0.50000000  0.65222779  0.94180971  1
  C  C96  1  0.50000000  0.68375936  0.63922319  1
  C  C97  1  0.50000000  0.68383654  0.80455809  1
  C  C98  1  0.50000000  0.68287158  0.96885700  1
  C  C99  1  0.50000000  0.62132695  0.53202380  1
  C  C100  1  0.50000000  0.62206235  0.69527578  1
  C  C101  1  0.50000000  0.62204653  0.85912863  1
  C  C102  1  0.50000000  0.65207358  0.55774940  1
  C  C103  1  0.50000000  0.65305748  0.72234715  1
  C  C104  1  0.50000000  0.65273226  0.88671021  1
  C  C105  1  0.50000000  0.71327150  0.61039223  1
  C  C106  1  0.50000000  0.71357607  0.77617888  1
  C  C107  1  0.50000000  0.71282382  0.94267308  1
  C  C108  1  0.50000000  0.68267897  0.53062374  1
  C  C109  1  0.50000000  0.68379068  0.69493520  1
  C  C110  1  0.50000000  0.68385287  0.86026994  1
  C  C111  1  0.50000000  0.71264638  0.55675610  1
  C  C112  1  0.50000000  0.71354823  0.72326198  1
  C  C113  1  0.50000000  0.71339902  0.88903426  1
  H  H114  1  0.50000000  0.26051728  0.63708685  1
  H  H115  1  0.50000000  0.26129247  0.79543673  1
  H  H116  1  0.50000000  0.25855818  0.95673086  1
  H  H117  1  0.50000000  0.25860704  0.54303544  1
  H  H118  1  0.50000000  0.26123829  0.70452765  1
  H  H119  1  0.50000000  0.26055009  0.86262367  1
  H  H120  1  0.50000000  0.73746879  0.62953800  1
  H  H121  1  0.50000000  0.73763545  0.79570852  1
  H  H122  1  0.50000000  0.73632556  0.96391634  1
  H  H123  1  0.50000000  0.73614053  0.53552075  1
  H  H124  1  0.50000000  0.73758277  0.70367635  1
  H  H125  1  0.50000000  0.73759924  0.86989082  1
  H  H126  1  0.50000000  0.68220572  0.48877201  1
  H  H127  1  0.50000000  0.30767287  0.00501523  1
  H  H128  1  0.50000000  0.32864787  0.13582934  1
  H  H129  1  0.50000000  0.32959841  0.29556387  1
  H  H130  1  0.50000000  0.32421799  0.44986423  1
  H  H131  1  0.50000000  0.30771993  0.49483543  1
  H  H132  1  0.50000000  0.32415732  0.05002620  1
  H  H133  1  0.50000000  0.32958242  0.20442706  1
  H  H134  1  0.50000000  0.32871550  0.36409228  1
  H  H135  1  0.50000000  0.62128298  0.00949866  1
  H  H136  1  0.50000000  0.68246072  0.01071125  1
  H  H137  1  0.50000000  0.62107347  0.49012752  1
  H  H138  1  0.50000000  0.56000232  0.00885142  1
  H  H139  1  0.50000000  0.55975572  0.49091697  1
  H  H140  1  0.50000000  0.50049069  0.00836248  1
  H  H141  1  0.50000000  0.50041442  0.49149460  1
  H  H142  1  0.50000000  0.46654060  0.11764171  1
  H  H143  1  0.50000000  0.46834081  0.29041495  1
  H  H144  1  0.50000000  0.46180009  0.45689214  1
  H  H145  1  0.50000000  0.46175529  0.04301671  1
  H  H146  1  0.50000000  0.46832699  0.20942033  1
  H  H147  1  0.50000000  0.46656007  0.38226489  1
