# generated using pymatgen
data_H17C57
_symmetry_space_group_name_H-M   'P 1'
_cell_length_a   20.00000000
_cell_length_b   40.19450000
_cell_length_c   25.87670966
_cell_angle_alpha   90.00000000
_cell_angle_beta   90.00000000
_cell_angle_gamma   90.00000000
_symmetry_Int_Tables_number   1
_chemical_formula_structural   H17C57
_chemical_formula_sum   'H34 C114'
_cell_volume   20802.02813071
_cell_formula_units_Z   2
loop_
 _symmetry_equiv_pos_site_id
 _symmetry_equiv_pos_as_xyz
  1  'x, y, z'
loop_
 _atom_site_type_symbol
 _atom_site_label
 _atom_site_symmetry_multiplicity
 _atom_site_fract_x
 _atom_site_fract_y
 _atom_site_fract_z
 _atom_site_occupancy
  C  C0  1  0.50000000  0.28555918  0.10966896  1
  C  C1  1  0.50000000  0.28554763  0.61026173  1
  C  C2  1  0.50000000  0.28557187  0.27622368  1
  C  C3  1  0.50000000  0.28598263  0.77667594  1
  C  C4  1  0.50000000  0.28502676  0.44317696  1
  C  C5  1  0.50000000  0.28541559  0.94260518  1
  C  C6  1  0.50000000  0.31581933  0.13841322  1
  C  C7  1  0.50000000  0.31578028  0.63877424  1
  C  C8  1  0.50000000  0.31563495  0.30538070  1
  C  C9  1  0.50000000  0.31593703  0.80511684  1
  C  C10  1  0.50000000  0.31501935  0.47239327  1
  C  C11  1  0.50000000  0.31545243  0.97166209  1
  C  C12  1  0.50000000  0.28530528  0.05658418  1
  C  C13  1  0.50000000  0.28526915  0.55720895  1
  C  C14  1  0.50000000  0.28567320  0.22318635  1
  C  C15  1  0.50000000  0.28591945  0.72337567  1
  C  C16  1  0.50000000  0.28525775  0.39010121  1
  C  C17  1  0.50000000  0.28566700  0.88954192  1
  C  C18  1  0.50000000  0.34639147  0.11072434  1
  C  C19  1  0.50000000  0.34623181  0.61117833  1
  C  C20  1  0.50000000  0.34634219  0.27792910  1
  C  C21  1  0.50000000  0.34663194  0.77757019  1
  C  C22  1  0.50000000  0.34579476  0.44514655  1
  C  C23  1  0.50000000  0.34613678  0.94394376  1
  C  C24  1  0.50000000  0.37648604  0.13977369  1
  C  C25  1  0.50000000  0.37742776  0.63888829  1
  C  C26  1  0.50000000  0.37633117  0.30716073  1
  C  C27  1  0.50000000  0.37743962  0.80539882  1
  C  C28  1  0.50000000  0.37565028  0.47389576  1
  C  C29  1  0.50000000  0.37688353  0.97208503  1
  C  C30  1  0.50000000  0.31532294  0.02740857  1
  C  C31  1  0.50000000  0.31525185  0.52809983  1
  C  C32  1  0.50000000  0.31583263  0.19430287  1
  C  C33  1  0.50000000  0.31582669  0.69469836  1
  C  C34  1  0.50000000  0.31549101  0.36129709  1
  C  C35  1  0.50000000  0.31588981  0.86099039  1
  C  C36  1  0.50000000  0.34612985  0.05461519  1
  C  C37  1  0.50000000  0.34598014  0.55573482  1
  C  C38  1  0.50000000  0.34644349  0.22196656  1
  C  C39  1  0.50000000  0.34658907  0.72208207  1
  C  C40  1  0.50000000  0.34601856  0.38908639  1
  C  C41  1  0.50000000  0.34634166  0.88848776  1
  C  C42  1  0.50000000  0.40804261  0.61143315  1
  C  C43  1  0.50000000  0.40811682  0.77742328  1
  C  C44  1  0.50000000  0.40852765  0.94385522  1
  C  C45  1  0.50000000  0.43884270  0.63921605  1
  C  C46  1  0.50000000  0.43884141  0.80474583  1
  C  C47  1  0.50000000  0.43892139  0.96907541  1
  C  C48  1  0.50000000  0.37592683  0.02571208  1
  C  C49  1  0.50000000  0.37671744  0.52751091  1
  C  C50  1  0.50000000  0.37651809  0.19291576  1
  C  C51  1  0.50000000  0.37738725  0.69415213  1
  C  C52  1  0.50000000  0.37614990  0.36026460  1
  C  C53  1  0.50000000  0.37748803  0.86064677  1
  C  C54  1  0.50000000  0.40843019  0.55560168  1
  C  C55  1  0.50000000  0.40809998  0.72201038  1
  C  C56  1  0.50000000  0.40810919  0.88803109  1
  C  C57  1  0.50000000  0.46961952  0.61225870  1
  C  C58  1  0.50000000  0.46963714  0.77724591  1
  C  C59  1  0.50000000  0.46979942  0.94253106  1
  C  C60  1  0.50000000  0.50045219  0.63947573  1
  C  C61  1  0.50000000  0.50044205  0.80451378  1
  C  C62  1  0.50000000  0.50005659  0.96927904  1
  C  C63  1  0.50000000  0.43881055  0.53025779  1
  C  C64  1  0.50000000  0.43881945  0.69461133  1
  C  C65  1  0.50000000  0.43886646  0.86013929  1
  C  C66  1  0.50000000  0.46975986  0.55671493  1
  C  C67  1  0.50000000  0.46963615  0.72204466  1
  C  C68  1  0.50000000  0.46964369  0.88701454  1
  C  C69  1  0.50000000  0.53103316  0.61197228  1
  C  C70  1  0.50000000  0.53120308  0.77726505  1
  C  C71  1  0.50000000  0.53089603  0.94315127  1
  C  C72  1  0.50000000  0.56183778  0.63924915  1
  C  C73  1  0.50000000  0.56189003  0.80476882  1
  C  C74  1  0.50000000  0.56133544  0.96978955  1
  C  C75  1  0.50000000  0.50004984  0.52996351  1
  C  C76  1  0.50000000  0.50044981  0.69474887  1
  C  C77  1  0.50000000  0.50044427  0.85976949  1
  C  C78  1  0.50000000  0.53093862  0.55607851  1
  C  C79  1  0.50000000  0.53121843  0.72200676  1
  C  C80  1  0.50000000  0.53099749  0.88727264  1
  C  C81  1  0.50000000  0.59251237  0.61169153  1
  C  C82  1  0.50000000  0.59273703  0.77742913  1
  C  C83  1  0.50000000  0.59209856  0.94357523  1
  C  C84  1  0.50000000  0.62322215  0.63889737  1
  C  C85  1  0.50000000  0.62327004  0.80500246  1
  C  C86  1  0.50000000  0.62251214  0.97038818  1
  C  C87  1  0.50000000  0.56143697  0.52951944  1
  C  C88  1  0.50000000  0.56192799  0.69452383  1
  C  C89  1  0.50000000  0.56178359  0.86002381  1
  C  C90  1  0.50000000  0.59222506  0.55575362  1
  C  C91  1  0.50000000  0.59276353  0.72192067  1
  C  C92  1  0.50000000  0.59241473  0.88763810  1
  C  C93  1  0.50000000  0.65393566  0.61102984  1
  C  C94  1  0.50000000  0.65422588  0.77752826  1
  C  C95  1  0.50000000  0.65324171  0.94432003  1
  C  C96  1  0.50000000  0.68501094  0.63781697  1
  C  C97  1  0.50000000  0.68489617  0.80536182  1
  C  C98  1  0.50000000  0.68382878  0.97183487  1
  C  C99  1  0.50000000  0.62271556  0.52909940  1
  C  C100  1  0.50000000  0.62332505  0.69440712  1
  C  C101  1  0.50000000  0.62312591  0.86050896  1
  C  C102  1  0.50000000  0.65342519  0.55527275  1
  C  C103  1  0.50000000  0.65426726  0.72194602  1
  C  C104  1  0.50000000  0.65377607  0.88852228  1
  C  C105  1  0.50000000  0.71454137  0.60864426  1
  C  C106  1  0.50000000  0.71463866  0.77667491  1
  C  C107  1  0.50000000  0.71377087  0.94528082  1
  C  C108  1  0.50000000  0.68404936  0.52787144  1
  C  C109  1  0.50000000  0.68499652  0.69424972  1
  C  C110  1  0.50000000  0.68484725  0.86177794  1
  C  C111  1  0.50000000  0.71401588  0.55436460  1
  C  C112  1  0.50000000  0.71468897  0.72309749  1
  C  C113  1  0.50000000  0.71433227  0.89102628  1
  H  H114  1  0.50000000  0.26174420  0.13009731  1
  H  H115  1  0.50000000  0.26164929  0.63041051  1
  H  H116  1  0.50000000  0.26150886  0.29589634  1
  H  H117  1  0.50000000  0.26205074  0.79669463  1
  H  H118  1  0.50000000  0.26093154  0.46274718  1
  H  H119  1  0.50000000  0.26145515  0.96261030  1
  H  H120  1  0.50000000  0.26127508  0.03677915  1
  H  H121  1  0.50000000  0.26125021  0.53743822  1
  H  H122  1  0.50000000  0.26170542  0.20321915  1
  H  H123  1  0.50000000  0.26189245  0.70363978  1
  H  H124  1  0.50000000  0.26136232  0.36995178  1
  H  H125  1  0.50000000  0.26185408  0.86911451  1
  H  H126  1  0.50000000  0.73867547  0.62815765  1
  H  H127  1  0.50000000  0.73860475  0.79666450  1
  H  H128  1  0.50000000  0.73737662  0.96647948  1
  H  H129  1  0.50000000  0.73759421  0.53303594  1
  H  H130  1  0.50000000  0.73871698  0.70329905  1
  H  H131  1  0.50000000  0.73853113  0.87174590  1
  H  H132  1  0.50000000  0.68346785  0.48552393  1
  H  H133  1  0.50000000  0.62264677  0.48671423  1
  H  H134  1  0.50000000  0.56128266  0.01217865  1
  H  H135  1  0.50000000  0.62224414  0.01278567  1
  H  H136  1  0.50000000  0.56141642  0.48713833  1
  H  H137  1  0.50000000  0.68326745  0.01422122  1
  H  H138  1  0.50000000  0.49989571  0.01165090  1
  H  H139  1  0.50000000  0.49983262  0.48756785  1
  H  H140  1  0.50000000  0.44028055  0.01128381  1
  H  H141  1  0.50000000  0.44000473  0.48799307  1
  H  H142  1  0.50000000  0.40050354  0.11993712  1
  H  H143  1  0.50000000  0.40034827  0.28738641  1
  H  H144  1  0.50000000  0.39901554  0.45261134  1
  H  H145  1  0.50000000  0.39936137  0.04678708  1
  H  H146  1  0.50000000  0.40046211  0.21294211  1
  H  H147  1  0.50000000  0.40006049  0.38035659  1
