# generated using pymatgen
data_H17C54
_symmetry_space_group_name_H-M   'P 1'
_cell_length_a   20.00000000
_cell_length_b   37.22700000
_cell_length_c   26.16324088
_cell_angle_alpha   90.00000000
_cell_angle_beta   90.00000000
_cell_angle_gamma   90.00000000
_symmetry_Int_Tables_number   1
_chemical_formula_structural   H17C54
_chemical_formula_sum   'H34 C108'
_cell_volume   19479.57936141
_cell_formula_units_Z   2
loop_
 _symmetry_equiv_pos_site_id
 _symmetry_equiv_pos_as_xyz
  1  'x, y, z'
loop_
 _atom_site_type_symbol
 _atom_site_label
 _atom_site_symmetry_multiplicity
 _atom_site_fract_x
 _atom_site_fract_y
 _atom_site_fract_z
 _atom_site_occupancy
  C  C0  1  0.50000000  0.31490712  0.55629940  1
  C  C1  1  0.50000000  0.31474081  0.88737335  1
  C  C2  1  0.50000000  0.38168377  0.55818193  1
  C  C3  1  0.50000000  0.38141837  0.88641965  1
  C  C4  1  0.50000000  0.44779246  0.55909087  1
  C  C5  1  0.50000000  0.44768454  0.88573553  1
  C  C6  1  0.50000000  0.51358726  0.56071136  1
  C  C7  1  0.50000000  0.51387953  0.88492674  1
  C  C8  1  0.50000000  0.59320848  0.22393379  1
  C  C9  1  0.50000000  0.58045313  0.55636899  1
  C  C10  1  0.50000000  0.58073011  0.88772296  1
  C  C11  1  0.50000000  0.65923300  0.22207904  1
  C  C12  1  0.50000000  0.64707077  0.55658560  1
  C  C13  1  0.50000000  0.64695167  0.88794318  1
  C  C14  1  0.50000000  0.71366278  0.55995161  1
  C  C15  1  0.50000000  0.71299603  0.88787718  1
  C  C16  1  0.50000000  0.31474650  0.61260673  1
  C  C17  1  0.50000000  0.31490859  0.94368387  1
  C  C18  1  0.50000000  0.38142721  0.61355301  1
  C  C19  1  0.50000000  0.38168078  0.94178515  1
  C  C20  1  0.50000000  0.44768101  0.61423218  1
  C  C21  1  0.50000000  0.44779051  0.94088362  1
  C  C22  1  0.50000000  0.51386864  0.61504649  1
  C  C23  1  0.50000000  0.51358929  0.93926076  1
  C  C24  1  0.50000000  0.59320246  0.27605753  1
  C  C25  1  0.50000000  0.58071793  0.61225601  1
  C  C26  1  0.50000000  0.58045281  0.94362646  1
  C  C27  1  0.50000000  0.65923720  0.27795861  1
  C  C28  1  0.50000000  0.64695141  0.61207281  1
  C  C29  1  0.50000000  0.64708350  0.94340484  1
  C  C30  1  0.50000000  0.71298988  0.61215972  1
  C  C31  1  0.50000000  0.71369467  0.94008915  1
  C  C32  1  0.50000000  0.28264620  0.64063231  1
  C  C33  1  0.50000000  0.28379818  0.97265756  1
  C  C34  1  0.50000000  0.34788336  0.64014078  1
  C  C35  1  0.50000000  0.34891483  0.96842232  1
  C  C36  1  0.50000000  0.41422174  0.64085299  1
  C  C37  1  0.50000000  0.41492271  0.96749279  1
  C  C38  1  0.50000000  0.48063091  0.64163499  1
  C  C39  1  0.50000000  0.48112203  0.96634937  1
  C  C40  1  0.50000000  0.54753212  0.64051921  1
  C  C41  1  0.50000000  0.54656081  0.96565411  1
  C  C42  1  0.50000000  0.62579557  0.30441223  1
  C  C43  1  0.50000000  0.61356108  0.63985881  1
  C  C44  1  0.50000000  0.61474674  0.97293536  1
  C  C45  1  0.50000000  0.69067273  0.30922420  1
  C  C46  1  0.50000000  0.67978884  0.63970863  1
  C  C47  1  0.50000000  0.68130496  0.96932826  1
  C  C48  1  0.50000000  0.28249011  0.69370909  1
  C  C49  1  0.50000000  0.34777405  0.69503613  1
  C  C50  1  0.50000000  0.41413990  0.69567535  1
  C  C51  1  0.50000000  0.48074224  0.69615190  1
  C  C52  1  0.50000000  0.54750172  0.69531916  1
  C  C53  1  0.50000000  0.61803246  0.02853689  1
  C  C54  1  0.50000000  0.62464229  0.35937342  1
  C  C55  1  0.50000000  0.61351892  0.69477241  1
  C  C56  1  0.50000000  0.68345058  0.02279848  1
  C  C57  1  0.50000000  0.68923745  0.36227404  1
  C  C58  1  0.50000000  0.67968696  0.69499740  1
  C  C59  1  0.50000000  0.31454303  0.72217708  1
  C  C60  1  0.50000000  0.38103088  0.72259291  1
  C  C61  1  0.50000000  0.44738407  0.72282842  1
  C  C62  1  0.50000000  0.51413739  0.72267311  1
  C  C63  1  0.50000000  0.58832594  0.06308831  1
  C  C64  1  0.50000000  0.59121348  0.38499859  1
  C  C65  1  0.50000000  0.58051487  0.72250512  1
  C  C66  1  0.50000000  0.65289431  0.05386169  1
  C  C67  1  0.50000000  0.65608366  0.38984182  1
  C  C68  1  0.50000000  0.64662385  0.72243855  1
  C  C69  1  0.50000000  0.71194832  0.72369692  1
  C  C70  1  0.50000000  0.31453818  0.77782824  1
  C  C71  1  0.50000000  0.38102877  0.77738696  1
  C  C72  1  0.50000000  0.44738294  0.77715768  1
  C  C73  1  0.50000000  0.51413187  0.77729071  1
  C  C74  1  0.50000000  0.59120870  0.11501016  1
  C  C75  1  0.50000000  0.58831592  0.43692345  1
  C  C76  1  0.50000000  0.58050984  0.77746370  1
  C  C77  1  0.50000000  0.65608084  0.11016805  1
  C  C78  1  0.50000000  0.65289211  0.44614242  1
  C  C79  1  0.50000000  0.64660338  0.77752004  1
  C  C80  1  0.50000000  0.71194740  0.77636736  1
  C  C81  1  0.50000000  0.28248139  0.80628763  1
  C  C82  1  0.50000000  0.34777071  0.80494590  1
  C  C83  1  0.50000000  0.41412953  0.80430576  1
  C  C84  1  0.50000000  0.48074250  0.80382915  1
  C  C85  1  0.50000000  0.54749906  0.80464176  1
  C  C86  1  0.50000000  0.62465042  0.14066327  1
  C  C87  1  0.50000000  0.61802572  0.47145715  1
  C  C88  1  0.50000000  0.61350810  0.80520837  1
  C  C89  1  0.50000000  0.68923807  0.13773234  1
  C  C90  1  0.50000000  0.68344935  0.47720750  1
  C  C91  1  0.50000000  0.67966284  0.80503340  1
  C  C92  1  0.50000000  0.28377770  0.52736750  1
  C  C93  1  0.50000000  0.28263427  0.85937376  1
  C  C94  1  0.50000000  0.34891103  0.53154680  1
  C  C95  1  0.50000000  0.34787507  0.85984070  1
  C  C96  1  0.50000000  0.41492938  0.53247619  1
  C  C97  1  0.50000000  0.41421643  0.85912381  1
  C  C98  1  0.50000000  0.48113039  0.53362364  1
  C  C99  1  0.50000000  0.48063792  0.85834372  1
  C  C100  1  0.50000000  0.54655715  0.53432976  1
  C  C101  1  0.50000000  0.54754617  0.85944511  1
  C  C102  1  0.50000000  0.62580979  0.19561079  1
  C  C103  1  0.50000000  0.61474245  0.52707445  1
  C  C104  1  0.50000000  0.61356325  0.86013228  1
  C  C105  1  0.50000000  0.69066545  0.19079230  1
  C  C106  1  0.50000000  0.68128843  0.53068277  1
  C  C107  1  0.50000000  0.67978426  0.86038348  1
  H  H108  1  0.50000000  0.73937009  0.53946032  1
  H  H109  1  0.50000000  0.73845656  0.86709338  1
  H  H110  1  0.50000000  0.73846987  0.63290118  1
  H  H111  1  0.50000000  0.73939743  0.96058794  1
  H  H112  1  0.50000000  0.25686812  0.62055154  1
  H  H113  1  0.50000000  0.25697298  0.95564282  1
  H  H114  1  0.50000000  0.25656891  0.71332240  1
  H  H115  1  0.50000000  0.73795871  0.70438442  1
  H  H116  1  0.50000000  0.73796428  0.79566812  1
  H  H117  1  0.50000000  0.25656617  0.78665419  1
  H  H118  1  0.50000000  0.25696440  0.54442234  1
  H  H119  1  0.50000000  0.25687648  0.87950716  1
  H  H120  1  0.50000000  0.56724961  0.20460225  1
  H  H121  1  0.50000000  0.56723561  0.29538995  1
  H  H122  1  0.50000000  0.28535134  0.01449209  1
  H  H123  1  0.50000000  0.34934368  0.01033144  1
  H  H124  1  0.50000000  0.41523379  0.00942549  1
  H  H125  1  0.50000000  0.48165142  0.00829218  1
  H  H126  1  0.50000000  0.54241011  0.00617117  1
  H  H127  1  0.50000000  0.71721597  0.29108889  1
  H  H128  1  0.50000000  0.71033301  0.03980078  1
  H  H129  1  0.50000000  0.71480900  0.38292289  1
  H  H130  1  0.50000000  0.56083950  0.05063863  1
  H  H131  1  0.50000000  0.56612934  0.36351753  1
  H  H132  1  0.50000000  0.56612443  0.13653181  1
  H  H133  1  0.50000000  0.56084988  0.44937693  1
  H  H134  1  0.50000000  0.71481722  0.11709017  1
  H  H135  1  0.50000000  0.71033514  0.46020209  1
  H  H136  1  0.50000000  0.28529442  0.48553258  1
  H  H137  1  0.50000000  0.34931740  0.48963500  1
  H  H138  1  0.50000000  0.41525117  0.49054483  1
  H  H139  1  0.50000000  0.48167478  0.49168640  1
  H  H140  1  0.50000000  0.54241656  0.49381669  1
  H  H141  1  0.50000000  0.71719609  0.20893391  1
