# generated using pymatgen
data_H17C54
_symmetry_space_group_name_H-M   'P 1'
_cell_length_a   20.00000000
_cell_length_b   37.22700000
_cell_length_c   26.18637051
_cell_angle_alpha   90.00000000
_cell_angle_beta   90.00000000
_cell_angle_gamma   90.00000000
_symmetry_Int_Tables_number   1
_chemical_formula_structural   H17C54
_chemical_formula_sum   'H34 C108'
_cell_volume   19496.80030265
_cell_formula_units_Z   2
loop_
 _symmetry_equiv_pos_site_id
 _symmetry_equiv_pos_as_xyz
  1  'x, y, z'
loop_
 _atom_site_type_symbol
 _atom_site_label
 _atom_site_symmetry_multiplicity
 _atom_site_fract_x
 _atom_site_fract_y
 _atom_site_fract_z
 _atom_site_occupancy
  C  C0  1  0.50000000  0.31553773  0.55645643  1
  C  C1  1  0.50000000  0.31528973  0.88725675  1
  C  C2  1  0.50000000  0.38213109  0.55927103  1
  C  C3  1  0.50000000  0.38198099  0.88558347  1
  C  C4  1  0.50000000  0.44777489  0.56139454  1
  C  C5  1  0.50000000  0.44813781  0.88447434  1
  C  C6  1  0.50000000  0.52484011  0.22394591  1
  C  C7  1  0.50000000  0.51448432  0.55698518  1
  C  C8  1  0.50000000  0.51492683  0.88749745  1
  C  C9  1  0.50000000  0.59080711  0.22209996  1
  C  C10  1  0.50000000  0.58096955  0.55614319  1
  C  C11  1  0.50000000  0.58112717  0.88811876  1
  C  C12  1  0.50000000  0.64854918  0.55825789  1
  C  C13  1  0.50000000  0.64790104  0.88727400  1
  C  C14  1  0.50000000  0.71408646  0.56016540  1
  C  C15  1  0.50000000  0.71361568  0.88676784  1
  C  C16  1  0.50000000  0.31527734  0.61274286  1
  C  C17  1  0.50000000  0.31554783  0.94354075  1
  C  C18  1  0.50000000  0.38198652  0.61441422  1
  C  C19  1  0.50000000  0.38212950  0.94073772  1
  C  C20  1  0.50000000  0.44813081  0.61554429  1
  C  C21  1  0.50000000  0.44776748  0.93861225  1
  C  C22  1  0.50000000  0.52483155  0.27605353  1
  C  C23  1  0.50000000  0.51491794  0.61253011  1
  C  C24  1  0.50000000  0.51448628  0.94302884  1
  C  C25  1  0.50000000  0.59079466  0.27791132  1
  C  C26  1  0.50000000  0.58113226  0.61185302  1
  C  C27  1  0.50000000  0.58097581  0.94386760  1
  C  C28  1  0.50000000  0.64788513  0.61272074  1
  C  C29  1  0.50000000  0.64856362  0.94174127  1
  C  C30  1  0.50000000  0.71361033  0.61322024  1
  C  C31  1  0.50000000  0.71409073  0.93981877  1
  C  C32  1  0.50000000  0.28310218  0.64061870  1
  C  C33  1  0.50000000  0.28476416  0.97321993  1
  C  C34  1  0.50000000  0.34833348  0.64054030  1
  C  C35  1  0.50000000  0.34965775  0.96784070  1
  C  C36  1  0.50000000  0.41473068  0.64189097  1
  C  C37  1  0.50000000  0.41539020  0.96592928  1
  C  C38  1  0.50000000  0.48182849  0.64083915  1
  C  C39  1  0.50000000  0.48052417  0.96497026  1
  C  C40  1  0.50000000  0.55739954  0.30437645  1
  C  C41  1  0.50000000  0.54808655  0.63980032  1
  C  C42  1  0.50000000  0.54830159  0.97274685  1
  C  C43  1  0.50000000  0.62227025  0.30907239  1
  C  C44  1  0.50000000  0.61408273  0.63968851  1
  C  C45  1  0.50000000  0.61480763  0.97032795  1
  C  C46  1  0.50000000  0.68094919  0.64027212  1
  C  C47  1  0.50000000  0.68192243  0.96694313  1
  C  C48  1  0.50000000  0.28295353  0.69367695  1
  C  C49  1  0.50000000  0.34828088  0.69527747  1
  C  C50  1  0.50000000  0.41487509  0.69634459  1
  C  C51  1  0.50000000  0.48185877  0.69564867  1
  C  C52  1  0.50000000  0.55031169  0.02856503  1
  C  C53  1  0.50000000  0.55629520  0.35931409  1
  C  C54  1  0.50000000  0.54809276  0.69485125  1
  C  C55  1  0.50000000  0.61558344  0.02360203  1
  C  C56  1  0.50000000  0.62093486  0.36204443  1
  C  C57  1  0.50000000  0.61404671  0.69460719  1
  C  C58  1  0.50000000  0.68054354  0.69569298  1
  C  C59  1  0.50000000  0.31501580  0.72221013  1
  C  C60  1  0.50000000  0.38162772  0.72278277  1
  C  C61  1  0.50000000  0.44847241  0.72282140  1
  C  C62  1  0.50000000  0.52039781  0.06283435  1
  C  C63  1  0.50000000  0.52300959  0.38519587  1
  C  C64  1  0.50000000  0.51493385  0.72262587  1
  C  C65  1  0.50000000  0.58472400  0.05414663  1
  C  C66  1  0.50000000  0.58780500  0.38966721  1
  C  C67  1  0.50000000  0.58110761  0.72234351  1
  C  C68  1  0.50000000  0.64734056  0.72253108  1
  C  C69  1  0.50000000  0.71284283  0.72369199  1
  C  C70  1  0.50000000  0.31501887  0.77774712  1
  C  C71  1  0.50000000  0.38162643  0.77723557  1
  C  C72  1  0.50000000  0.44846162  0.77719873  1
  C  C73  1  0.50000000  0.52302067  0.11479362  1
  C  C74  1  0.50000000  0.52038219  0.43715150  1
  C  C75  1  0.50000000  0.51492376  0.77738838  1
  C  C76  1  0.50000000  0.58781357  0.11029470  1
  C  C77  1  0.50000000  0.58472991  0.44584354  1
  C  C78  1  0.50000000  0.58111961  0.77765828  1
  C  C79  1  0.50000000  0.64734386  0.77747847  1
  C  C80  1  0.50000000  0.71285807  0.77631103  1
  C  C81  1  0.50000000  0.28298136  0.80632183  1
  C  C82  1  0.50000000  0.34827488  0.80470674  1
  C  C83  1  0.50000000  0.41486958  0.80368053  1
  C  C84  1  0.50000000  0.48185037  0.80437295  1
  C  C85  1  0.50000000  0.55631288  0.14067183  1
  C  C86  1  0.50000000  0.55030331  0.47143018  1
  C  C87  1  0.50000000  0.54810592  0.80515444  1
  C  C88  1  0.50000000  0.62094130  0.13793710  1
  C  C89  1  0.50000000  0.61558944  0.47642310  1
  C  C90  1  0.50000000  0.61405712  0.80539280  1
  C  C91  1  0.50000000  0.68056160  0.80431069  1
  C  C92  1  0.50000000  0.28475662  0.52676946  1
  C  C93  1  0.50000000  0.28312721  0.85936372  1
  C  C94  1  0.50000000  0.34965333  0.53217134  1
  C  C95  1  0.50000000  0.34832880  0.85944211  1
  C  C96  1  0.50000000  0.41539343  0.53408373  1
  C  C97  1  0.50000000  0.41473134  0.85812679  1
  C  C98  1  0.50000000  0.48052833  0.53502613  1
  C  C99  1  0.50000000  0.48184750  0.85920422  1
  C  C100  1  0.50000000  0.55741603  0.19562225  1
  C  C101  1  0.50000000  0.54829217  0.52727626  1
  C  C102  1  0.50000000  0.54808133  0.86018977  1
  C  C103  1  0.50000000  0.62228059  0.19091815  1
  C  C104  1  0.50000000  0.61480401  0.52968317  1
  C  C105  1  0.50000000  0.61408816  0.86030300  1
  C  C106  1  0.50000000  0.68191516  0.53303539  1
  C  C107  1  0.50000000  0.68096409  0.85971256  1
  H  H108  1  0.50000000  0.73977795  0.53975443  1
  H  H109  1  0.50000000  0.73915056  0.86622433  1
  H  H110  1  0.50000000  0.73918858  0.63369330  1
  H  H111  1  0.50000000  0.73975819  0.96030988  1
  H  H112  1  0.50000000  0.25734338  0.62044383  1
  H  H113  1  0.50000000  0.25752969  0.95755652  1
  H  H114  1  0.50000000  0.25705964  0.71343614  1
  H  H115  1  0.50000000  0.73875547  0.70411104  1
  H  H116  1  0.50000000  0.73877143  0.79589095  1
  H  H117  1  0.50000000  0.25706236  0.78666904  1
  H  H118  1  0.50000000  0.25752793  0.54246288  1
  H  H119  1  0.50000000  0.25734437  0.87946421  1
  H  H120  1  0.50000000  0.49899308  0.20436805  1
  H  H121  1  0.50000000  0.49898854  0.29563702  1
  H  H122  1  0.50000000  0.28734145  0.01491447  1
  H  H123  1  0.50000000  0.35075125  0.00969503  1
  H  H124  1  0.50000000  0.41602093  0.00778571  1
  H  H125  1  0.50000000  0.47620984  0.00532688  1
  H  H126  1  0.50000000  0.64867960  0.29067553  1
  H  H127  1  0.50000000  0.68328934  0.00861435  1
  H  H128  1  0.50000000  0.64149041  0.04282293  1
  H  H129  1  0.50000000  0.64651794  0.38269791  1
  H  H130  1  0.50000000  0.49289996  0.05059837  1
  H  H131  1  0.50000000  0.49774775  0.36404973  1
  H  H132  1  0.50000000  0.49775280  0.13594061  1
  H  H133  1  0.50000000  0.49289380  0.44943209  1
  H  H134  1  0.50000000  0.64656240  0.11737323  1
  H  H135  1  0.50000000  0.64149170  0.45710036  1
  H  H136  1  0.50000000  0.28734482  0.48507322  1
  H  H137  1  0.50000000  0.35071639  0.49031600  1
  H  H138  1  0.50000000  0.41598074  0.49223039  1
  H  H139  1  0.50000000  0.47619145  0.49467352  1
  H  H140  1  0.50000000  0.64871483  0.20927380  1
  H  H141  1  0.50000000  0.68327277  0.49135722  1
