# generated using pymatgen
data_H17C54
_symmetry_space_group_name_H-M   'P 1'
_cell_length_a   20.00000000
_cell_length_b   37.22700000
_cell_length_c   26.17559715
_cell_angle_alpha   90.00000000
_cell_angle_beta   90.00000000
_cell_angle_gamma   90.00000000
_symmetry_Int_Tables_number   1
_chemical_formula_structural   H17C54
_chemical_formula_sum   'H34 C108'
_cell_volume   19488.77909865
_cell_formula_units_Z   2
loop_
 _symmetry_equiv_pos_site_id
 _symmetry_equiv_pos_as_xyz
  1  'x, y, z'
loop_
 _atom_site_type_symbol
 _atom_site_label
 _atom_site_symmetry_multiplicity
 _atom_site_fract_x
 _atom_site_fract_y
 _atom_site_fract_z
 _atom_site_occupancy
  C  C0  1  0.50000000  0.31520283  0.55744502  1
  C  C1  1  0.50000000  0.31525171  0.88642547  1
  C  C2  1  0.50000000  0.38149829  0.56096725  1
  C  C3  1  0.50000000  0.38189826  0.88473039  1
  C  C4  1  0.50000000  0.45879723  0.22392987  1
  C  C5  1  0.50000000  0.44824689  0.55703350  1
  C  C6  1  0.50000000  0.44870004  0.88749689  1
  C  C7  1  0.50000000  0.52479610  0.22209050  1
  C  C8  1  0.50000000  0.51456561  0.55612233  1
  C  C9  1  0.50000000  0.51477572  0.88816515  1
  C  C10  1  0.50000000  0.58206911  0.55815559  1
  C  C11  1  0.50000000  0.58155533  0.88688988  1
  C  C12  1  0.50000000  0.64799949  0.55903404  1
  C  C13  1  0.50000000  0.64802307  0.88628709  1
  C  C14  1  0.50000000  0.71323336  0.55810189  1
  C  C15  1  0.50000000  0.71348630  0.88831527  1
  C  C16  1  0.50000000  0.31522229  0.61363527  1
  C  C17  1  0.50000000  0.31524924  0.94261223  1
  C  C18  1  0.50000000  0.38186716  0.61528662  1
  C  C19  1  0.50000000  0.38152959  0.93905081  1
  C  C20  1  0.50000000  0.45878793  0.27603403  1
  C  C21  1  0.50000000  0.44868374  0.61250008  1
  C  C22  1  0.50000000  0.44827707  0.94295820  1
  C  C23  1  0.50000000  0.52478110  0.27792100  1
  C  C24  1  0.50000000  0.51476987  0.61182605  1
  C  C25  1  0.50000000  0.51458573  0.94385782  1
  C  C26  1  0.50000000  0.58153535  0.61309045  1
  C  C27  1  0.50000000  0.58208449  0.94182201  1
  C  C28  1  0.50000000  0.64797794  0.61366278  1
  C  C29  1  0.50000000  0.64803342  0.94090364  1
  C  C30  1  0.50000000  0.71344652  0.61162213  1
  C  C31  1  0.50000000  0.71327835  0.94183626  1
  C  C32  1  0.50000000  0.28298355  0.64135950  1
  C  C33  1  0.50000000  0.28442620  0.97215520  1
  C  C34  1  0.50000000  0.34827594  0.64143225  1
  C  C35  1  0.50000000  0.34936863  0.96669200  1
  C  C36  1  0.50000000  0.41540818  0.64067803  1
  C  C37  1  0.50000000  0.41436267  0.96517480  1
  C  C38  1  0.50000000  0.49136268  0.30433960  1
  C  C39  1  0.50000000  0.48185928  0.63975356  1
  C  C40  1  0.50000000  0.48193746  0.97274779  1
  C  C41  1  0.50000000  0.55623721  0.30917444  1
  C  C42  1  0.50000000  0.54795492  0.63980638  1
  C  C43  1  0.50000000  0.54832299  0.97041358  1
  C  C44  1  0.50000000  0.61455483  0.64061271  1
  C  C45  1  0.50000000  0.61489404  0.96694141  1
  C  C46  1  0.50000000  0.68143211  0.64009775  1
  C  C47  1  0.50000000  0.68089728  0.96806605  1
  C  C48  1  0.50000000  0.28292022  0.69423406  1
  C  C49  1  0.50000000  0.34841915  0.69586150  1
  C  C50  1  0.50000000  0.41539475  0.69563271  1
  C  C51  1  0.50000000  0.48388670  0.02867238  1
  C  C52  1  0.50000000  0.49023051  0.35926950  1
  C  C53  1  0.50000000  0.48185758  0.69496624  1
  C  C54  1  0.50000000  0.54910865  0.02356379  1
  C  C55  1  0.50000000  0.55486694  0.36218314  1
  C  C56  1  0.50000000  0.54798506  0.69473084  1
  C  C57  1  0.50000000  0.61436381  0.69544925  1
  C  C58  1  0.50000000  0.68114180  0.69556530  1
  C  C59  1  0.50000000  0.31511251  0.72245686  1
  C  C60  1  0.50000000  0.38214597  0.72271484  1
  C  C61  1  0.50000000  0.45407215  0.06310714  1
  C  C62  1  0.50000000  0.45691236  0.38496004  1
  C  C63  1  0.50000000  0.44865668  0.72267870  1
  C  C64  1  0.50000000  0.51830162  0.05417238  1
  C  C65  1  0.50000000  0.52166515  0.38975893  1
  C  C66  1  0.50000000  0.51483879  0.72240035  1
  C  C67  1  0.50000000  0.58120742  0.72237865  1
  C  C68  1  0.50000000  0.64785983  0.72261742  1
  C  C69  1  0.50000000  0.71334047  0.72358329  1
  C  C70  1  0.50000000  0.31511627  0.77759624  1
  C  C71  1  0.50000000  0.38215062  0.77730754  1
  C  C72  1  0.50000000  0.45693162  0.11505023  1
  C  C73  1  0.50000000  0.45406220  0.43690766  1
  C  C74  1  0.50000000  0.44867036  0.77734087  1
  C  C75  1  0.50000000  0.52168486  0.11023435  1
  C  C76  1  0.50000000  0.51828642  0.44582312  1
  C  C77  1  0.50000000  0.51485292  0.77759148  1
  C  C78  1  0.50000000  0.58122584  0.77760818  1
  C  C79  1  0.50000000  0.64787625  0.77734717  1
  C  C80  1  0.50000000  0.71334635  0.77633147  1
  C  C81  1  0.50000000  0.28293158  0.80583801  1
  C  C82  1  0.50000000  0.34842685  0.80417349  1
  C  C83  1  0.50000000  0.41540764  0.80438107  1
  C  C84  1  0.50000000  0.49025520  0.14072869  1
  C  C85  1  0.50000000  0.48387461  0.47132969  1
  C  C86  1  0.50000000  0.48187311  0.80503077  1
  C  C87  1  0.50000000  0.55487984  0.13781660  1
  C  C88  1  0.50000000  0.54909891  0.47641615  1
  C  C89  1  0.50000000  0.54800356  0.80525960  1
  C  C90  1  0.50000000  0.61440316  0.80452432  1
  C  C91  1  0.50000000  0.68116866  0.80437573  1
  C  C92  1  0.50000000  0.28433237  0.52799086  1
  C  C93  1  0.50000000  0.28300048  0.85872060  1
  C  C94  1  0.50000000  0.34932262  0.53334890  1
  C  C95  1  0.50000000  0.34830213  0.85860488  1
  C  C96  1  0.50000000  0.41432826  0.53482409  1
  C  C97  1  0.50000000  0.41543168  0.85932627  1
  C  C98  1  0.50000000  0.49138510  0.19565103  1
  C  C99  1  0.50000000  0.48191130  0.52724666  1
  C  C100  1  0.50000000  0.48186327  0.86024278  1
  C  C101  1  0.50000000  0.55625477  0.19082681  1
  C  C102  1  0.50000000  0.54830218  0.52957026  1
  C  C103  1  0.50000000  0.54795996  0.86018103  1
  C  C104  1  0.50000000  0.61485854  0.53300878  1
  C  C105  1  0.50000000  0.61459226  0.85936024  1
  C  C106  1  0.50000000  0.68086584  0.53186455  1
  C  C107  1  0.50000000  0.68148064  0.85983700  1
  H  H108  1  0.50000000  0.73880142  0.53730892  1
  H  H109  1  0.50000000  0.73951303  0.86896023  1
  H  H110  1  0.50000000  0.73945241  0.63099592  1
  H  H111  1  0.50000000  0.73884704  0.96262797  1
  H  H112  1  0.50000000  0.25729378  0.62106661  1
  H  H113  1  0.50000000  0.25731268  0.95612502  1
  H  H114  1  0.50000000  0.25706608  0.71401324  1
  H  H115  1  0.50000000  0.73919497  0.70384217  1
  H  H116  1  0.50000000  0.73920462  0.79605385  1
  H  H117  1  0.50000000  0.25707929  0.78604998  1
  H  H118  1  0.50000000  0.25725266  0.54413863  1
  H  H119  1  0.50000000  0.25731155  0.87903106  1
  H  H120  1  0.50000000  0.43289774  0.20447171  1
  H  H121  1  0.50000000  0.43288818  0.29548521  1
  H  H122  1  0.50000000  0.28675854  0.01390092  1
  H  H123  1  0.50000000  0.35053489  0.00859611  1
  H  H124  1  0.50000000  0.41043970  0.00562127  1
  H  H125  1  0.50000000  0.58266934  0.29075017  1
  H  H126  1  0.50000000  0.61623684  0.00864706  1
  H  H127  1  0.50000000  0.68025133  0.00993195  1
  H  H128  1  0.50000000  0.57494801  0.04296655  1
  H  H129  1  0.50000000  0.58058193  0.38254271  1
  H  H130  1  0.50000000  0.42647618  0.05125224  1
  H  H131  1  0.50000000  0.43174147  0.36366623  1
  H  H132  1  0.50000000  0.43176263  0.13635575  1
  H  H133  1  0.50000000  0.42647160  0.44877325  1
  H  H134  1  0.50000000  0.58058578  0.11743295  1
  H  H135  1  0.50000000  0.57493499  0.45701616  1
  H  H136  1  0.50000000  0.28652215  0.48623148  1
  H  H137  1  0.50000000  0.35048670  0.49144732  1
  H  H138  1  0.50000000  0.41037272  0.49437897  1
  H  H139  1  0.50000000  0.58270989  0.20918652  1
  H  H140  1  0.50000000  0.61618653  0.49129860  1
  H  H141  1  0.50000000  0.68023396  0.48999058  1
