# generated using pymatgen
data_H2C7
_symmetry_space_group_name_H-M   'P 1'
_cell_length_a   10.00000000
_cell_length_b   41.10890000
_cell_length_c   26.15664918
_cell_angle_alpha   90.00000000
_cell_angle_beta   90.00000000
_cell_angle_gamma   90.00000000
_symmetry_Int_Tables_number   1
_chemical_formula_structural   H2C7
_chemical_formula_sum   'H36 C126'
_cell_volume   10752.71075522
_cell_formula_units_Z   18
loop_
 _symmetry_equiv_pos_site_id
 _symmetry_equiv_pos_as_xyz
  1  'x, y, z'
loop_
 _atom_site_type_symbol
 _atom_site_label
 _atom_site_symmetry_multiplicity
 _atom_site_fract_x
 _atom_site_fract_y
 _atom_site_fract_z
 _atom_site_occupancy
  C  C0  1  0.50000000  0.28747971  0.63940614  1
  C  C1  1  0.50000000  0.28820366  0.96924957  1
  C  C2  1  0.50000000  0.34784716  0.64040555  1
  C  C3  1  0.50000000  0.34832063  0.96826301  1
  C  C4  1  0.50000000  0.40785789  0.64077913  1
  C  C5  1  0.50000000  0.40824585  0.96771114  1
  C  C6  1  0.50000000  0.46779858  0.64102003  1
  C  C7  1  0.50000000  0.46818099  0.96736531  1
  C  C8  1  0.50000000  0.52780907  0.64164073  1
  C  C9  1  0.50000000  0.52811380  0.96639604  1
  C  C10  1  0.50000000  0.58835842  0.64043773  1
  C  C11  1  0.50000000  0.58740270  0.96578001  1
  C  C12  1  0.50000000  0.65926392  0.30436040  1
  C  C13  1  0.50000000  0.64813885  0.63981295  1
  C  C14  1  0.50000000  0.64915732  0.97300738  1
  C  C15  1  0.50000000  0.71797179  0.30916506  1
  C  C16  1  0.50000000  0.70809509  0.63965490  1
  C  C17  1  0.50000000  0.70941166  0.96941052  1
  C  C18  1  0.50000000  0.28746374  0.69515197  1
  C  C19  1  0.50000000  0.34771789  0.69532220  1
  C  C20  1  0.50000000  0.40772811  0.69545567  1
  C  C21  1  0.50000000  0.46775159  0.69565327  1
  C  C22  1  0.50000000  0.52793691  0.69610863  1
  C  C23  1  0.50000000  0.58835634  0.69529073  1
  C  C24  1  0.50000000  0.65212660  0.02863338  1
  C  C25  1  0.50000000  0.65810456  0.35928365  1
  C  C26  1  0.50000000  0.64813058  0.69476660  1
  C  C27  1  0.50000000  0.71134586  0.02287632  1
  C  C28  1  0.50000000  0.71660282  0.36221182  1
  C  C29  1  0.50000000  0.70801930  0.69495543  1
  C  C30  1  0.50000000  0.25839759  0.72353911  1
  C  C31  1  0.50000000  0.31747354  0.72253625  1
  C  C32  1  0.50000000  0.37757778  0.72254842  1
  C  C33  1  0.50000000  0.43773073  0.72266058  1
  C  C34  1  0.50000000  0.49780794  0.72279779  1
  C  C35  1  0.50000000  0.55821816  0.72267109  1
  C  C36  1  0.50000000  0.62523127  0.06315829  1
  C  C37  1  0.50000000  0.62780390  0.38491432  1
  C  C38  1  0.50000000  0.61825159  0.72252638  1
  C  C39  1  0.50000000  0.68368417  0.05394345  1
  C  C40  1  0.50000000  0.68656916  0.38975672  1
  C  C41  1  0.50000000  0.67807875  0.72246994  1
  C  C42  1  0.50000000  0.73722714  0.72365355  1
  C  C43  1  0.50000000  0.25839866  0.77650628  1
  C  C44  1  0.50000000  0.31747143  0.77748038  1
  C  C45  1  0.50000000  0.37757797  0.77747793  1
  C  C46  1  0.50000000  0.43773116  0.77736211  1
  C  C47  1  0.50000000  0.49780911  0.77717149  1
  C  C48  1  0.50000000  0.55821793  0.77728117  1
  C  C49  1  0.50000000  0.62781287  0.11510050  1
  C  C50  1  0.50000000  0.62523315  0.43684024  1
  C  C51  1  0.50000000  0.61824580  0.77747707  1
  C  C52  1  0.50000000  0.68657025  0.11023471  1
  C  C53  1  0.50000000  0.68368196  0.44604718  1
  C  C54  1  0.50000000  0.67807328  0.77752416  1
  C  C55  1  0.50000000  0.73723820  0.77632064  1
  C  C56  1  0.50000000  0.28746033  0.80488336  1
  C  C57  1  0.50000000  0.34771484  0.80469745  1
  C  C58  1  0.50000000  0.40772970  0.80457188  1
  C  C59  1  0.50000000  0.46776119  0.80433567  1
  C  C60  1  0.50000000  0.52794483  0.80385364  1
  C  C61  1  0.50000000  0.58835523  0.80467585  1
  C  C62  1  0.50000000  0.65810716  0.14070053  1
  C  C63  1  0.50000000  0.65212552  0.47136643  1
  C  C64  1  0.50000000  0.64812606  0.80522997  1
  C  C65  1  0.50000000  0.71660635  0.13777161  1
  C  C66  1  0.50000000  0.71133744  0.47711347  1
  C  C67  1  0.50000000  0.70802015  0.80502095  1
  C  C68  1  0.50000000  0.28818919  0.53079125  1
  C  C69  1  0.50000000  0.28748558  0.86063166  1
  C  C70  1  0.50000000  0.34830524  0.53175413  1
  C  C71  1  0.50000000  0.34784880  0.85961098  1
  C  C72  1  0.50000000  0.40822601  0.53227037  1
  C  C73  1  0.50000000  0.40785814  0.85924528  1
  C  C74  1  0.50000000  0.46815481  0.53263558  1
  C  C75  1  0.50000000  0.46780650  0.85896898  1
  C  C76  1  0.50000000  0.52809625  0.53358398  1
  C  C77  1  0.50000000  0.52781292  0.85832775  1
  C  C78  1  0.50000000  0.58738906  0.53421185  1
  C  C79  1  0.50000000  0.58836424  0.85954105  1
  C  C80  1  0.50000000  0.65926497  0.19562122  1
  C  C81  1  0.50000000  0.64915604  0.52699250  1
  C  C82  1  0.50000000  0.64815264  0.86019177  1
  C  C83  1  0.50000000  0.71796964  0.19081980  1
  C  C84  1  0.50000000  0.70939012  0.53057745  1
  C  C85  1  0.50000000  0.70811690  0.86036216  1
  C  C86  1  0.50000000  0.25894554  0.55717871  1
  C  C87  1  0.50000000  0.25852425  0.88924936  1
  C  C88  1  0.50000000  0.31824210  0.55764448  1
  C  C89  1  0.50000000  0.31780200  0.88721681  1
  C  C90  1  0.50000000  0.37812996  0.55817172  1
  C  C91  1  0.50000000  0.37783555  0.88649032  1
  C  C92  1  0.50000000  0.43810411  0.55852806  1
  C  C93  1  0.50000000  0.43794538  0.88616578  1
  C  C94  1  0.50000000  0.49794570  0.55912095  1
  C  C95  1  0.50000000  0.49797520  0.88569919  1
  C  C96  1  0.50000000  0.55754414  0.56060845  1
  C  C97  1  0.50000000  0.55789488  0.88501173  1
  C  C98  1  0.50000000  0.62978569  0.22393564  1
  C  C99  1  0.50000000  0.61810296  0.55626942  1
  C  C100  1  0.50000000  0.61841518  0.88782355  1
  C  C101  1  0.50000000  0.68953029  0.22206221  1
  C  C102  1  0.50000000  0.67842956  0.55651904  1
  C  C103  1  0.50000000  0.67836899  0.88797052  1
  C  C104  1  0.50000000  0.73870709  0.55982730  1
  C  C105  1  0.50000000  0.73815375  0.88795834  1
  C  C106  1  0.50000000  0.25851716  0.61080132  1
  C  C107  1  0.50000000  0.25895459  0.94287111  1
  C  C108  1  0.50000000  0.31779620  0.61281001  1
  C  C109  1  0.50000000  0.31825142  0.94238364  1
  C  C110  1  0.50000000  0.37783372  0.61352763  1
  C  C111  1  0.50000000  0.37814209  0.94183098  1
  C  C112  1  0.50000000  0.43793465  0.61383333  1
  C  C113  1  0.50000000  0.43813158  0.94146643  1
  C  C114  1  0.50000000  0.49796372  0.61427742  1
  C  C115  1  0.50000000  0.49796797  0.94086526  1
  C  C116  1  0.50000000  0.55788541  0.61497263  1
  C  C117  1  0.50000000  0.55755951  0.93937491  1
  C  C118  1  0.50000000  0.62978346  0.27603350  1
  C  C119  1  0.50000000  0.61840957  0.61215446  1
  C  C120  1  0.50000000  0.61811713  0.94370713  1
  C  C121  1  0.50000000  0.68952743  0.27792000  1
  C  C122  1  0.50000000  0.67835699  0.61202984  1
  C  C123  1  0.50000000  0.67844109  0.94348351  1
  C  C124  1  0.50000000  0.73811820  0.61203870  1
  C  C125  1  0.50000000  0.73874631  0.94017387  1
  H  H126  1  0.50000000  0.23492383  0.70394779  1
  H  H127  1  0.50000000  0.76075623  0.70426891  1
  H  H128  1  0.50000000  0.23491803  0.79609632  1
  H  H129  1  0.50000000  0.76079158  0.79562775  1
  H  H130  1  0.50000000  0.23589526  0.53611617  1
  H  H131  1  0.50000000  0.23500416  0.86975439  1
  H  H132  1  0.50000000  0.76193936  0.53925180  1
  H  H133  1  0.50000000  0.76117946  0.86715918  1
  H  H134  1  0.50000000  0.23498337  0.63025927  1
  H  H135  1  0.50000000  0.23592317  0.96399924  1
  H  H136  1  0.50000000  0.76115611  0.63279366  1
  H  H137  1  0.50000000  0.76198048  0.96077042  1
  H  H138  1  0.50000000  0.28842869  0.01113749  1
  H  H139  1  0.50000000  0.34851231  0.01019831  1
  H  H140  1  0.50000000  0.40844559  0.00962943  1
  H  H141  1  0.50000000  0.46847640  0.00931173  1
  H  H142  1  0.50000000  0.52840621  0.00834739  1
  H  H143  1  0.50000000  0.58367525  0.00629806  1
  H  H144  1  0.50000000  0.74197354  0.29100459  1
  H  H145  1  0.50000000  0.73565856  0.03991590  1
  H  H146  1  0.50000000  0.73972641  0.38294867  1
  H  H147  1  0.50000000  0.60037889  0.05068067  1
  H  H148  1  0.50000000  0.60500164  0.36357785  1
  H  H149  1  0.50000000  0.60501831  0.13643668  1
  H  H150  1  0.50000000  0.60038638  0.44938283  1
  H  H151  1  0.50000000  0.73972043  0.11701460  1
  H  H152  1  0.50000000  0.73564776  0.46007029  1
  H  H153  1  0.50000000  0.28841769  0.48890185  1
  H  H154  1  0.50000000  0.34847908  0.48980907  1
  H  H155  1  0.50000000  0.40842406  0.49034114  1
  H  H156  1  0.50000000  0.46847333  0.49069449  1
  H  H157  1  0.50000000  0.52839984  0.49163400  1
  H  H158  1  0.50000000  0.58363797  0.49369125  1
  H  H159  1  0.50000000  0.74196625  0.20900478  1
  H  H160  1  0.50000000  0.60641791  0.20428509  1
  H  H161  1  0.50000000  0.60641509  0.29568063  1
