# generated using pymatgen
data_H2C7
_symmetry_space_group_name_H-M   'P 1'
_cell_length_a   10.00000000
_cell_length_b   41.10890000
_cell_length_c   26.18880274
_cell_angle_alpha   90.00000000
_cell_angle_beta   90.00000000
_cell_angle_gamma   90.00000000
_symmetry_Int_Tables_number   1
_chemical_formula_structural   H2C7
_chemical_formula_sum   'H36 C126'
_cell_volume   10765.92872883
_cell_formula_units_Z   18
loop_
 _symmetry_equiv_pos_site_id
 _symmetry_equiv_pos_as_xyz
  1  'x, y, z'
loop_
 _atom_site_type_symbol
 _atom_site_label
 _atom_site_symmetry_multiplicity
 _atom_site_fract_x
 _atom_site_fract_y
 _atom_site_fract_z
 _atom_site_occupancy
  C  C0  1  0.50000000  0.28783861  0.63964271  1
  C  C1  1  0.50000000  0.28878486  0.96886503  1
  C  C2  1  0.50000000  0.34819594  0.64099087  1
  C  C3  1  0.50000000  0.34874827  0.96739360  1
  C  C4  1  0.50000000  0.40821180  0.64198184  1
  C  C5  1  0.50000000  0.40855070  0.96593786  1
  C  C6  1  0.50000000  0.46880446  0.64084612  1
  C  C7  1  0.50000000  0.46755829  0.96499366  1
  C  C8  1  0.50000000  0.53705811  0.30438712  1
  C  C9  1  0.50000000  0.52885177  0.63974026  1
  C  C10  1  0.50000000  0.52887356  0.97268273  1
  C  C11  1  0.50000000  0.59582042  0.30907968  1
  C  C12  1  0.50000000  0.58867784  0.63974410  1
  C  C13  1  0.50000000  0.58903217  0.97039840  1
  C  C14  1  0.50000000  0.64903038  0.64062745  1
  C  C15  1  0.50000000  0.64940034  0.96686158  1
  C  C16  1  0.50000000  0.70968501  0.64013940  1
  C  C17  1  0.50000000  0.70917020  0.96794035  1
  C  C18  1  0.50000000  0.28788330  0.69529915  1
  C  C19  1  0.50000000  0.34819028  0.69564109  1
  C  C20  1  0.50000000  0.40835029  0.69619695  1
  C  C21  1  0.50000000  0.46883725  0.69562259  1
  C  C22  1  0.50000000  0.53069763  0.02856424  1
  C  C23  1  0.50000000  0.53606155  0.35933200  1
  C  C24  1  0.50000000  0.52888786  0.69492162  1
  C  C25  1  0.50000000  0.58976481  0.02358054  1
  C  C26  1  0.50000000  0.59458487  0.36205008  1
  C  C27  1  0.50000000  0.58875235  0.69474464  1
  C  C28  1  0.50000000  0.64889002  0.69548653  1
  C  C29  1  0.50000000  0.70938608  0.69559264  1
  C  C30  1  0.50000000  0.25881384  0.72358810  1
  C  C31  1  0.50000000  0.31791559  0.72264459  1
  C  C32  1  0.50000000  0.37812014  0.72276202  1
  C  C33  1  0.50000000  0.43867252  0.72273017  1
  C  C34  1  0.50000000  0.50363990  0.06284724  1
  C  C35  1  0.50000000  0.50594030  0.38521775  1
  C  C36  1  0.50000000  0.49890931  0.72267816  1
  C  C37  1  0.50000000  0.56182593  0.05418557  1
  C  C38  1  0.50000000  0.56459227  0.38970975  1
  C  C39  1  0.50000000  0.55879076  0.72240789  1
  C  C40  1  0.50000000  0.61885990  0.72241670  1
  C  C41  1  0.50000000  0.67919725  0.72260525  1
  C  C42  1  0.50000000  0.73851763  0.72358372  1
  C  C43  1  0.50000000  0.25881330  0.77644875  1
  C  C44  1  0.50000000  0.31791106  0.77737843  1
  C  C45  1  0.50000000  0.37811254  0.77727551  1
  C  C46  1  0.50000000  0.43868552  0.77728065  1
  C  C47  1  0.50000000  0.50596647  0.11480986  1
  C  C48  1  0.50000000  0.50361562  0.43718130  1
  C  C49  1  0.50000000  0.49894095  0.77743516  1
  C  C50  1  0.50000000  0.56462032  0.11032120  1
  C  C51  1  0.50000000  0.56180512  0.44583985  1
  C  C52  1  0.50000000  0.55880974  0.77759783  1
  C  C53  1  0.50000000  0.61886803  0.77756345  1
  C  C54  1  0.50000000  0.67919677  0.77733915  1
  C  C55  1  0.50000000  0.73852829  0.77631688  1
  C  C56  1  0.50000000  0.28788628  0.80472504  1
  C  C57  1  0.50000000  0.34818194  0.80438114  1
  C  C58  1  0.50000000  0.40835111  0.80382082  1
  C  C59  1  0.50000000  0.46885007  0.80441464  1
  C  C60  1  0.50000000  0.53608744  0.14070125  1
  C  C61  1  0.50000000  0.53067724  0.47145399  1
  C  C62  1  0.50000000  0.52891282  0.80508728  1
  C  C63  1  0.50000000  0.59460623  0.13799806  1
  C  C64  1  0.50000000  0.58975171  0.47642214  1
  C  C65  1  0.50000000  0.58877114  0.80524834  1
  C  C66  1  0.50000000  0.64889799  0.80448626  1
  C  C67  1  0.50000000  0.70939048  0.80432681  1
  C  C68  1  0.50000000  0.28876735  0.53116646  1
  C  C69  1  0.50000000  0.28784692  0.86038439  1
  C  C70  1  0.50000000  0.34872942  0.53264430  1
  C  C71  1  0.50000000  0.34819759  0.85903132  1
  C  C72  1  0.50000000  0.40853569  0.53408533  1
  C  C73  1  0.50000000  0.40822178  0.85803898  1
  C  C74  1  0.50000000  0.46753310  0.53500076  1
  C  C75  1  0.50000000  0.46881261  0.85918267  1
  C  C76  1  0.50000000  0.53706627  0.19564873  1
  C  C77  1  0.50000000  0.52884888  0.52732550  1
  C  C78  1  0.50000000  0.52883912  0.86021813  1
  C  C79  1  0.50000000  0.59582504  0.19096632  1
  C  C80  1  0.50000000  0.58901653  0.52958608  1
  C  C81  1  0.50000000  0.58868655  0.86025501  1
  C  C82  1  0.50000000  0.64936399  0.53309910  1
  C  C83  1  0.50000000  0.64904358  0.85934725  1
  C  C84  1  0.50000000  0.70912272  0.53197655  1
  C  C85  1  0.50000000  0.70970333  0.85977534  1
  C  C86  1  0.50000000  0.25946999  0.55730580  1
  C  C87  1  0.50000000  0.25895177  0.88913221  1
  C  C88  1  0.50000000  0.31867586  0.55826958  1
  C  C89  1  0.50000000  0.31822793  0.88673979  1
  C  C90  1  0.50000000  0.37837409  0.55936839  1
  C  C91  1  0.50000000  0.37827623  0.88550681  1
  C  C92  1  0.50000000  0.43786233  0.56130836  1
  C  C93  1  0.50000000  0.43831012  0.88448277  1
  C  C94  1  0.50000000  0.50755786  0.22395534  1
  C  C95  1  0.50000000  0.49829780  0.55703460  1
  C  C96  1  0.50000000  0.49880992  0.88746712  1
  C  C97  1  0.50000000  0.56730799  0.22212522  1
  C  C98  1  0.50000000  0.55844961  0.55614526  1
  C  C99  1  0.50000000  0.55867904  0.88813752  1
  C  C100  1  0.50000000  0.61962477  0.55815208  1
  C  C101  1  0.50000000  0.61914891  0.88692163  1
  C  C102  1  0.50000000  0.67935997  0.55914285  1
  C  C103  1  0.50000000  0.67936956  0.88619960  1
  C  C104  1  0.50000000  0.73840980  0.55818394  1
  C  C105  1  0.50000000  0.73869547  0.88821210  1
  C  C106  1  0.50000000  0.25894494  0.61088980  1
  C  C107  1  0.50000000  0.25948880  0.94271353  1
  C  C108  1  0.50000000  0.31821788  0.61329283  1
  C  C109  1  0.50000000  0.31869618  0.94176431  1
  C  C110  1  0.50000000  0.37827289  0.61451025  1
  C  C111  1  0.50000000  0.37839055  0.94065485  1
  C  C112  1  0.50000000  0.43830194  0.61553363  1
  C  C113  1  0.50000000  0.43788113  0.93870755  1
  C  C114  1  0.50000000  0.50755836  0.27607154  1
  C  C115  1  0.50000000  0.49879423  0.61254121  1
  C  C116  1  0.50000000  0.49832104  0.94298326  1
  C  C117  1  0.50000000  0.56730366  0.27792503  1
  C  C118  1  0.50000000  0.55867285  0.61185680  1
  C  C119  1  0.50000000  0.55846122  0.94383128  1
  C  C120  1  0.50000000  0.61913606  0.61306018  1
  C  C121  1  0.50000000  0.61965186  0.94183045  1
  C  C122  1  0.50000000  0.67934508  0.61374655  1
  C  C123  1  0.50000000  0.67939874  0.94080731  1
  C  C124  1  0.50000000  0.73867053  0.61167653  1
  C  C125  1  0.50000000  0.73844086  0.94170262  1
  H  H126  1  0.50000000  0.23540015  0.70385377  1
  H  H127  1  0.50000000  0.76189462  0.70371143  1
  H  H128  1  0.50000000  0.23540610  0.79620595  1
  H  H129  1  0.50000000  0.76190640  0.79618614  1
  H  H130  1  0.50000000  0.23646882  0.53614340  1
  H  H131  1  0.50000000  0.23535116  0.86989775  1
  H  H132  1  0.50000000  0.76144927  0.53717651  1
  H  H133  1  0.50000000  0.76229181  0.86896368  1
  H  H134  1  0.50000000  0.23536025  0.63015146  1
  H  H135  1  0.50000000  0.23647501  0.96383859  1
  H  H136  1  0.50000000  0.76226226  0.63093756  1
  H  H137  1  0.50000000  0.76151354  0.96261204  1
  H  H138  1  0.50000000  0.28932588  0.01069001  1
  H  H139  1  0.50000000  0.34904153  0.00927995  1
  H  H140  1  0.50000000  0.40911528  0.00780416  1
  H  H141  1  0.50000000  0.46371181  0.00535278  1
  H  H142  1  0.50000000  0.61976840  0.29071296  1
  H  H143  1  0.50000000  0.65076729  0.00854044  1
  H  H144  1  0.50000000  0.70869708  0.00979215  1
  H  H145  1  0.50000000  0.61324435  0.04283007  1
  H  H146  1  0.50000000  0.61777826  0.38259852  1
  H  H147  1  0.50000000  0.47875746  0.05060201  1
  H  H148  1  0.50000000  0.48302648  0.36416205  1
  H  H149  1  0.50000000  0.48304841  0.13586240  1
  H  H150  1  0.50000000  0.47873613  0.44943673  1
  H  H151  1  0.50000000  0.61781491  0.11749208  1
  H  H152  1  0.50000000  0.61322446  0.45717502  1
  H  H153  1  0.50000000  0.28931537  0.48934671  1
  H  H154  1  0.50000000  0.34901935  0.49075991  1
  H  H155  1  0.50000000  0.40911252  0.49222328  1
  H  H156  1  0.50000000  0.46367897  0.49463849  1
  H  H157  1  0.50000000  0.61978714  0.20927550  1
  H  H158  1  0.50000000  0.65071627  0.49142893  1
  H  H159  1  0.50000000  0.70865227  0.49013076  1
  H  H160  1  0.50000000  0.48410073  0.20449832  1
  H  H161  1  0.50000000  0.48410484  0.29553274  1
