# generated using pymatgen
data_H2C7
_symmetry_space_group_name_H-M   'P 1'
_cell_length_a   10.00000000
_cell_length_b   41.10890000
_cell_length_c   26.19223013
_cell_angle_alpha   90.00000000
_cell_angle_beta   90.00000000
_cell_angle_gamma   90.00000000
_symmetry_Int_Tables_number   1
_chemical_formula_structural   H2C7
_chemical_formula_sum   'H36 C126'
_cell_volume   10767.33769231
_cell_formula_units_Z   18
loop_
 _symmetry_equiv_pos_site_id
 _symmetry_equiv_pos_as_xyz
  1  'x, y, z'
loop_
 _atom_site_type_symbol
 _atom_site_label
 _atom_site_symmetry_multiplicity
 _atom_site_fract_x
 _atom_site_fract_y
 _atom_site_fract_z
 _atom_site_occupancy
  C  C0  1  0.50000000  0.29036614  0.63960289  1
  C  C1  1  0.50000000  0.29115681  0.96882815  1
  C  C2  1  0.50000000  0.35076774  0.64073283  1
  C  C3  1  0.50000000  0.35120417  0.96762962  1
  C  C4  1  0.50000000  0.41083294  0.64125945  1
  C  C5  1  0.50000000  0.41109018  0.96693440  1
  C  C6  1  0.50000000  0.47113760  0.64091892  1
  C  C7  1  0.50000000  0.47068400  0.96658501  1
  C  C8  1  0.50000000  0.52399316  0.30910396  1
  C  C9  1  0.50000000  0.53146579  0.63979997  1
  C  C10  1  0.50000000  0.53106069  0.97022076  1
  C  C11  1  0.50000000  0.58274793  0.30437236  1
  C  C12  1  0.50000000  0.59129352  0.63987524  1
  C  C13  1  0.50000000  0.59121626  0.97268122  1
  C  C14  1  0.50000000  0.65130650  0.64064955  1
  C  C15  1  0.50000000  0.65247719  0.96514849  1
  C  C16  1  0.50000000  0.71226099  0.64111983  1
  C  C17  1  0.50000000  0.71180224  0.96668301  1
  C  C18  1  0.50000000  0.29044853  0.69525597  1
  C  C19  1  0.50000000  0.35076520  0.69546713  1
  C  C20  1  0.50000000  0.41089814  0.69574132  1
  C  C21  1  0.50000000  0.47122115  0.69567896  1
  C  C22  1  0.50000000  0.53030398  0.02342032  1
  C  C23  1  0.50000000  0.52517812  0.36208897  1
  C  C24  1  0.50000000  0.53142735  0.69490264  1
  C  C25  1  0.50000000  0.58936162  0.02853812  1
  C  C26  1  0.50000000  0.58369959  0.35933411  1
  C  C27  1  0.50000000  0.59126587  0.69492225  1
  C  C28  1  0.50000000  0.65119952  0.69542402  1
  C  C29  1  0.50000000  0.71178454  0.69620254  1
  C  C30  1  0.50000000  0.26138062  0.72355992  1
  C  C31  1  0.50000000  0.32049923  0.72257790  1
  C  C32  1  0.50000000  0.38069817  0.72260541  1
  C  C33  1  0.50000000  0.44109326  0.72267909  1
  C  C34  1  0.50000000  0.50139250  0.72260452  1
  C  C35  1  0.50000000  0.55817671  0.05410416  1
  C  C36  1  0.50000000  0.55519719  0.38973598  1
  C  C37  1  0.50000000  0.56132037  0.72244000  1
  C  C38  1  0.50000000  0.61639295  0.06290227  1
  C  C39  1  0.50000000  0.61383155  0.38519576  1
  C  C40  1  0.50000000  0.62127304  0.72249197  1
  C  C41  1  0.50000000  0.68148010  0.72272334  1
  C  C42  1  0.50000000  0.74101297  0.72375282  1
  C  C43  1  0.50000000  0.26137264  0.77640933  1
  C  C44  1  0.50000000  0.32049666  0.77737661  1
  C  C45  1  0.50000000  0.38069688  0.77733267  1
  C  C46  1  0.50000000  0.44109497  0.77728800  1
  C  C47  1  0.50000000  0.50139948  0.77737442  1
  C  C48  1  0.50000000  0.55519274  0.11026871  1
  C  C49  1  0.50000000  0.55817255  0.44590318  1
  C  C50  1  0.50000000  0.56132202  0.77755838  1
  C  C51  1  0.50000000  0.61382056  0.11482498  1
  C  C52  1  0.50000000  0.61639702  0.43712733  1
  C  C53  1  0.50000000  0.62126194  0.77752247  1
  C  C54  1  0.50000000  0.68148731  0.77734765  1
  C  C55  1  0.50000000  0.74103110  0.77627119  1
  C  C56  1  0.50000000  0.29044854  0.80470155  1
  C  C57  1  0.50000000  0.35076536  0.80448016  1
  C  C58  1  0.50000000  0.41089325  0.80421672  1
  C  C59  1  0.50000000  0.47122590  0.80428798  1
  C  C60  1  0.50000000  0.52517238  0.13790743  1
  C  C61  1  0.50000000  0.53030496  0.47658932  1
  C  C62  1  0.50000000  0.53142378  0.80508919  1
  C  C63  1  0.50000000  0.58368930  0.14068067  1
  C  C64  1  0.50000000  0.58936009  0.47148131  1
  C  C65  1  0.50000000  0.59125736  0.80507828  1
  C  C66  1  0.50000000  0.65117427  0.80460125  1
  C  C67  1  0.50000000  0.71181940  0.80385072  1
  C  C68  1  0.50000000  0.29115267  0.53113922  1
  C  C69  1  0.50000000  0.29036456  0.86035238  1
  C  C70  1  0.50000000  0.35119867  0.53232870  1
  C  C71  1  0.50000000  0.35076737  0.85922313  1
  C  C72  1  0.50000000  0.41109886  0.53303548  1
  C  C73  1  0.50000000  0.41082490  0.85869667  1
  C  C74  1  0.50000000  0.47070063  0.53340358  1
  C  C75  1  0.50000000  0.47113225  0.85905299  1
  C  C76  1  0.50000000  0.52396750  0.19089588  1
  C  C77  1  0.50000000  0.53106909  0.52976892  1
  C  C78  1  0.50000000  0.53145629  0.86020068  1
  C  C79  1  0.50000000  0.58273070  0.19563792  1
  C  C80  1  0.50000000  0.59123164  0.52733224  1
  C  C81  1  0.50000000  0.59128124  0.86012787  1
  C  C82  1  0.50000000  0.65251342  0.53486776  1
  C  C83  1  0.50000000  0.65128686  0.85938949  1
  C  C84  1  0.50000000  0.71184038  0.53339185  1
  C  C85  1  0.50000000  0.71225315  0.85894104  1
  C  C86  1  0.50000000  0.26189895  0.55739558  1
  C  C87  1  0.50000000  0.26143458  0.88900086  1
  C  C88  1  0.50000000  0.32115386  0.55808761  1
  C  C89  1  0.50000000  0.32074679  0.88680713  1
  C  C90  1  0.50000000  0.38096187  0.55877066  1
  C  C91  1  0.50000000  0.38082622  0.88598097  1
  C  C92  1  0.50000000  0.44067986  0.55960716  1
  C  C93  1  0.50000000  0.44093406  0.88551848  1
  C  C94  1  0.50000000  0.50048264  0.55837156  1
  C  C95  1  0.50000000  0.50109303  0.88676608  1
  C  C96  1  0.50000000  0.55247912  0.22210002  1
  C  C97  1  0.50000000  0.56167125  0.55624857  1
  C  C98  1  0.50000000  0.56148374  0.88806058  1
  C  C99  1  0.50000000  0.61225336  0.22394456  1
  C  C100  1  0.50000000  0.62181717  0.55702672  1
  C  C101  1  0.50000000  0.62140412  0.88743983  1
  C  C102  1  0.50000000  0.68223197  0.56098752  1
  C  C103  1  0.50000000  0.68194460  0.88504854  1
  C  C104  1  0.50000000  0.74116564  0.55937853  1
  C  C105  1  0.50000000  0.74127404  0.88725559  1
  C  C106  1  0.50000000  0.26142981  0.61096631  1
  C  C107  1  0.50000000  0.26190411  0.94256681  1
  C  C108  1  0.50000000  0.32074212  0.61314855  1
  C  C109  1  0.50000000  0.32115482  0.94186759  1
  C  C110  1  0.50000000  0.38082675  0.61398955  1
  C  C111  1  0.50000000  0.38095810  0.94119898  1
  C  C112  1  0.50000000  0.44094924  0.61443184  1
  C  C113  1  0.50000000  0.44067612  0.94035665  1
  C  C114  1  0.50000000  0.50110809  0.61321853  1
  C  C115  1  0.50000000  0.50046786  0.94163008  1
  C  C116  1  0.50000000  0.55249650  0.27791022  1
  C  C117  1  0.50000000  0.56150240  0.61194604  1
  C  C118  1  0.50000000  0.56165691  0.94376634  1
  C  C119  1  0.50000000  0.61226620  0.27606138  1
  C  C120  1  0.50000000  0.62142586  0.61257468  1
  C  C121  1  0.50000000  0.62178826  0.94298226  1
  C  C122  1  0.50000000  0.68196635  0.61499034  1
  C  C123  1  0.50000000  0.68219964  0.93905382  1
  C  C124  1  0.50000000  0.74128468  0.61282989  1
  C  C125  1  0.50000000  0.74113068  0.94071347  1
  H  H126  1  0.50000000  0.23795109  0.70386002  1
  H  H127  1  0.50000000  0.76427350  0.70370187  1
  H  H128  1  0.50000000  0.23794279  0.79612046  1
  H  H129  1  0.50000000  0.76429604  0.79630905  1
  H  H130  1  0.50000000  0.23886866  0.53631261  1
  H  H131  1  0.50000000  0.23783129  0.86976003  1
  H  H132  1  0.50000000  0.76426538  0.53858266  1
  H  H133  1  0.50000000  0.76473264  0.86764353  1
  H  H134  1  0.50000000  0.23785844  0.63029785  1
  H  H135  1  0.50000000  0.23884908  0.96358441  1
  H  H136  1  0.50000000  0.76474856  0.63242736  1
  H  H137  1  0.50000000  0.76421709  0.96155827  1
  H  H138  1  0.50000000  0.29140193  0.01066110  1
  H  H139  1  0.50000000  0.35134262  0.00950876  1
  H  H140  1  0.50000000  0.41142906  0.00882560  1
  H  H141  1  0.50000000  0.46934976  0.00824227  1
  H  H142  1  0.50000000  0.50004738  0.29076026  1
  H  H143  1  0.50000000  0.65604004  0.00554352  1
  H  H144  1  0.50000000  0.71105882  0.00853611  1
  H  H145  1  0.50000000  0.50684343  0.04265840  1
  H  H146  1  0.50000000  0.50194962  0.38259908  1
  H  H147  1  0.50000000  0.64137442  0.05094932  1
  H  H148  1  0.50000000  0.63662454  0.36394443  1
  H  H149  1  0.50000000  0.63661796  0.13606024  1
  H  H150  1  0.50000000  0.64136540  0.44912644  1
  H  H151  1  0.50000000  0.50194396  0.11739372  1
  H  H152  1  0.50000000  0.50683978  0.45734230  1
  H  H153  1  0.50000000  0.29139579  0.48930402  1
  H  H154  1  0.50000000  0.35133599  0.49045145  1
  H  H155  1  0.50000000  0.41144164  0.49113928  1
  H  H156  1  0.50000000  0.46939484  0.49173649  1
  H  H157  1  0.50000000  0.49999546  0.20917395  1
  H  H158  1  0.50000000  0.65607962  0.49446528  1
  H  H159  1  0.50000000  0.71113435  0.49154235  1
  H  H160  1  0.50000000  0.63571966  0.20448849  1
  H  H161  1  0.50000000  0.63573355  0.29552116  1
