# generated using pymatgen
data_H17C57
_symmetry_space_group_name_H-M   'P 1'
_cell_length_a   20.00000000
_cell_length_b   40.19450000
_cell_length_c   26.19415595
_cell_angle_alpha   90.00000000
_cell_angle_beta   90.00000000
_cell_angle_gamma   90.00000000
_symmetry_Int_Tables_number   1
_chemical_formula_structural   H17C57
_chemical_formula_sum   'H34 C114'
_cell_volume   21057.22002696
_cell_formula_units_Z   2
loop_
 _symmetry_equiv_pos_site_id
 _symmetry_equiv_pos_as_xyz
  1  'x, y, z'
loop_
 _atom_site_type_symbol
 _atom_site_label
 _atom_site_symmetry_multiplicity
 _atom_site_fract_x
 _atom_site_fract_y
 _atom_site_fract_z
 _atom_site_occupancy
  C  C0  1  0.50000000  0.28721579  0.61180542  1
  C  C1  1  0.50000000  0.28799338  0.77628282  1
  C  C2  1  0.50000000  0.28672185  0.94008837  1
  C  C3  1  0.50000000  0.30962773  0.13751124  1
  C  C4  1  0.50000000  0.31782730  0.63954201  1
  C  C5  1  0.50000000  0.30841068  0.30906480  1
  C  C6  1  0.50000000  0.31787740  0.80490030  1
  C  C7  1  0.50000000  0.31475775  0.47697992  1
  C  C8  1  0.50000000  0.31668608  0.96933443  1
  C  C9  1  0.50000000  0.28666129  0.55965818  1
  C  C10  1  0.50000000  0.28794823  0.72355638  1
  C  C11  1  0.50000000  0.28729471  0.88793330  1
  C  C12  1  0.50000000  0.34032583  0.10996624  1
  C  C13  1  0.50000000  0.34824907  0.61193349  1
  C  C14  1  0.50000000  0.33748901  0.27773858  1
  C  C15  1  0.50000000  0.34848801  0.77739380  1
  C  C16  1  0.50000000  0.34311633  0.44604838  1
  C  C17  1  0.50000000  0.34829668  0.94327488  1
  C  C18  1  0.50000000  0.36948097  0.14041749  1
  C  C19  1  0.50000000  0.37910645  0.63980701  1
  C  C20  1  0.50000000  0.36841517  0.30435039  1
  C  C21  1  0.50000000  0.37913196  0.80501569  1
  C  C22  1  0.50000000  0.37532740  0.47148144  1
  C  C23  1  0.50000000  0.37826060  0.97265539  1
  C  C24  1  0.50000000  0.31479464  0.02277891  1
  C  C25  1  0.50000000  0.31662979  0.53041036  1
  C  C26  1  0.50000000  0.30836335  0.19053153  1
  C  C27  1  0.50000000  0.31782615  0.69488996  1
  C  C28  1  0.50000000  0.30964246  0.36210843  1
  C  C29  1  0.50000000  0.31791101  0.86023601  1
  C  C30  1  0.50000000  0.34315635  0.05368663  1
  C  C31  1  0.50000000  0.34822785  0.55647466  1
  C  C32  1  0.50000000  0.33746291  0.22182261  1
  C  C33  1  0.50000000  0.34846914  0.72235405  1
  C  C34  1  0.50000000  0.34031281  0.38976057  1
  C  C35  1  0.50000000  0.34832711  0.88782412  1
  C  C36  1  0.50000000  0.40039995  0.11460979  1
  C  C37  1  0.50000000  0.40949672  0.61229000  1
  C  C38  1  0.50000000  0.39856336  0.27594874  1
  C  C39  1  0.50000000  0.40967696  0.77724861  1
  C  C40  1  0.50000000  0.40288327  0.43705633  1
  C  C41  1  0.50000000  0.40989918  0.94322531  1
  C  C42  1  0.50000000  0.44025878  0.64054820  1
  C  C43  1  0.50000000  0.44030404  0.80436500  1
  C  C44  1  0.50000000  0.44130527  0.96516689  1
  C  C45  1  0.50000000  0.37536205  0.02823573  1
  C  C46  1  0.50000000  0.37819567  0.52707927  1
  C  C47  1  0.50000000  0.36840742  0.19538725  1
  C  C48  1  0.50000000  0.37911279  0.69470194  1
  C  C49  1  0.50000000  0.36949601  0.35935448  1
  C  C50  1  0.50000000  0.37916710  0.85992043  1
  C  C51  1  0.50000000  0.40289208  0.06270153  1
  C  C52  1  0.50000000  0.40983040  0.55649938  1
  C  C53  1  0.50000000  0.39854396  0.22385047  1
  C  C54  1  0.50000000  0.40967260  0.72245055  1
  C  C55  1  0.50000000  0.40042105  0.38513901  1
  C  C56  1  0.50000000  0.40956015  0.88741252  1
  C  C57  1  0.50000000  0.47137806  0.61518879  1
  C  C58  1  0.50000000  0.47112407  0.77707715  1
  C  C59  1  0.50000000  0.47178685  0.93874354  1
  C  C60  1  0.50000000  0.50219239  0.64170359  1
  C  C61  1  0.50000000  0.50212709  0.80360992  1
  C  C62  1  0.50000000  0.50182570  0.96575150  1
  C  C63  1  0.50000000  0.44122837  0.53456946  1
  C  C64  1  0.50000000  0.44029112  0.69530953  1
  C  C65  1  0.50000000  0.44030820  0.85912215  1
  C  C66  1  0.50000000  0.47172427  0.56094225  1
  C  C67  1  0.50000000  0.47111787  0.72258473  1
  C  C68  1  0.50000000  0.47143391  0.88448693  1
  C  C69  1  0.50000000  0.53270945  0.61430745  1
  C  C70  1  0.50000000  0.53296261  0.77700983  1
  C  C71  1  0.50000000  0.53271967  0.94039294  1
  C  C72  1  0.50000000  0.56354873  0.64091005  1
  C  C73  1  0.50000000  0.56365623  0.80416882  1
  C  C74  1  0.50000000  0.56307638  0.96695323  1
  C  C75  1  0.50000000  0.50173700  0.53385401  1
  C  C76  1  0.50000000  0.50211807  0.69603391  1
  C  C77  1  0.50000000  0.50224180  0.85794032  1
  C  C78  1  0.50000000  0.53264873  0.55917923  1
  C  C79  1  0.50000000  0.53295428  0.72261719  1
  C  C80  1  0.50000000  0.53276795  0.88528287  1
  C  C81  1  0.50000000  0.59416732  0.61354101  1
  C  C82  1  0.50000000  0.59447735  0.77719032  1
  C  C83  1  0.50000000  0.59393056  0.94129852  1
  C  C84  1  0.50000000  0.62485148  0.64034617  1
  C  C85  1  0.50000000  0.62500278  0.80442451  1
  C  C86  1  0.50000000  0.62439988  0.96770577  1
  C  C87  1  0.50000000  0.56300027  0.53259858  1
  C  C88  1  0.50000000  0.56361881  0.69543521  1
  C  C89  1  0.50000000  0.56360473  0.85867850  1
  C  C90  1  0.50000000  0.59385941  0.55827494  1
  C  C91  1  0.50000000  0.59444902  0.72240112  1
  C  C92  1  0.50000000  0.59423630  0.88603742  1
  C  C93  1  0.50000000  0.65555127  0.61285175  1
  C  C94  1  0.50000000  0.65589946  0.77720659  1
  C  C95  1  0.50000000  0.65512998  0.94184839  1
  C  C96  1  0.50000000  0.68656329  0.63941961  1
  C  C97  1  0.50000000  0.68661840  0.80452945  1
  C  C98  1  0.50000000  0.68583318  0.96872123  1
  C  C99  1  0.50000000  0.62434436  0.53190313  1
  C  C100  1  0.50000000  0.62494754  0.69515002  1
  C  C101  1  0.50000000  0.62493465  0.85923191  1
  C  C102  1  0.50000000  0.65505746  0.55779047  1
  C  C103  1  0.50000000  0.65585666  0.72236411  1
  C  C104  1  0.50000000  0.65563358  0.88676645  1
  C  C105  1  0.50000000  0.71613496  0.61081726  1
  C  C106  1  0.50000000  0.71636068  0.77620546  1
  C  C107  1  0.50000000  0.71571334  0.94235028  1
  C  C108  1  0.50000000  0.68576221  0.53094464  1
  C  C109  1  0.50000000  0.68655931  0.69505130  1
  C  C110  1  0.50000000  0.68665181  0.86019682  1
  C  C111  1  0.50000000  0.71564922  0.55728616  1
  C  C112  1  0.50000000  0.71631083  0.72334811  1
  C  C113  1  0.50000000  0.71624843  0.88880113  1
  H  H114  1  0.50000000  0.26359584  0.63239667  1
  H  H115  1  0.50000000  0.26396121  0.79572087  1
  H  H116  1  0.50000000  0.26291949  0.96046021  1
  H  H117  1  0.50000000  0.26282104  0.53937693  1
  H  H118  1  0.50000000  0.26388449  0.70418354  1
  H  H119  1  0.50000000  0.26373718  0.86718681  1
  H  H120  1  0.50000000  0.74025923  0.63007855  1
  H  H121  1  0.50000000  0.74041522  0.79566934  1
  H  H122  1  0.50000000  0.73924002  0.96346436  1
  H  H123  1  0.50000000  0.73921621  0.53626556  1
  H  H124  1  0.50000000  0.74031915  0.70377888  1
  H  H125  1  0.50000000  0.74040868  0.86961237  1
  H  H126  1  0.50000000  0.68555884  0.48913225  1
  H  H127  1  0.50000000  0.28594648  0.11679139  1
  H  H128  1  0.50000000  0.28395316  0.29066656  1
  H  H129  1  0.50000000  0.28993036  0.45984969  1
  H  H130  1  0.50000000  0.28999509  0.04001287  1
  H  H131  1  0.50000000  0.28388895  0.20887499  1
  H  H132  1  0.50000000  0.28595986  0.38281438  1
  H  H133  1  0.50000000  0.68567263  0.01054332  1
  H  H134  1  0.50000000  0.62424851  0.49002513  1
  H  H135  1  0.50000000  0.62420670  0.00959597  1
  H  H136  1  0.50000000  0.56262654  0.00881716  1
  H  H137  1  0.50000000  0.56255065  0.49072556  1
  H  H138  1  0.50000000  0.50133884  0.00761209  1
  H  H139  1  0.50000000  0.50115845  0.49197378  1
  H  H140  1  0.50000000  0.42381151  0.13571065  1
  H  H141  1  0.50000000  0.42254651  0.29540227  1
  H  H142  1  0.50000000  0.42828213  0.44963075  1
  H  H143  1  0.50000000  0.44518028  0.00562025  1
  H  H144  1  0.50000000  0.42829265  0.05013906  1
  H  H145  1  0.50000000  0.42252395  0.20443017  1
  H  H146  1  0.50000000  0.42385570  0.36406922  1
  H  H147  1  0.50000000  0.44513884  0.49414939  1
