# generated using pymatgen
data_H17C54
_symmetry_space_group_name_H-M   'P 1'
_cell_length_a   20.00000000
_cell_length_b   37.22700000
_cell_length_c   26.18440813
_cell_angle_alpha   90.00000000
_cell_angle_beta   90.00000000
_cell_angle_gamma   90.00000000
_symmetry_Int_Tables_number   1
_chemical_formula_structural   H17C54
_chemical_formula_sum   'H34 C108'
_cell_volume   19495.33923235
_cell_formula_units_Z   2
loop_
 _symmetry_equiv_pos_site_id
 _symmetry_equiv_pos_as_xyz
  1  'x, y, z'
loop_
 _atom_site_type_symbol
 _atom_site_label
 _atom_site_symmetry_multiplicity
 _atom_site_fract_x
 _atom_site_fract_y
 _atom_site_fract_z
 _atom_site_occupancy
  C  C0  1  0.50000000  0.31839958  0.55682264  1
  C  C1  1  0.50000000  0.31835188  0.88692744  1
  C  C2  1  0.50000000  0.38487461  0.55943087  1
  C  C3  1  0.50000000  0.38507264  0.88570574  1
  C  C4  1  0.50000000  0.45091823  0.55827788  1
  C  C5  1  0.50000000  0.45148919  0.88686391  1
  C  C6  1  0.50000000  0.50881883  0.22208347  1
  C  C7  1  0.50000000  0.51845393  0.55631172  1
  C  C8  1  0.50000000  0.51821106  0.88795824  1
  C  C9  1  0.50000000  0.57480864  0.22392504  1
  C  C10  1  0.50000000  0.58489239  0.55703609  1
  C  C11  1  0.50000000  0.58442032  0.88742428  1
  C  C12  1  0.50000000  0.65164073  0.56109492  1
  C  C13  1  0.50000000  0.65129360  0.88494236  1
  C  C14  1  0.50000000  0.71669596  0.55921538  1
  C  C15  1  0.50000000  0.71676803  0.88736043  1
  C  C16  1  0.50000000  0.31836528  0.61303370  1
  C  C17  1  0.50000000  0.31838876  0.94314278  1
  C  C18  1  0.50000000  0.38507289  0.61425536  1
  C  C19  1  0.50000000  0.38487155  0.94052640  1
  C  C20  1  0.50000000  0.45150123  0.61311411  1
  C  C21  1  0.50000000  0.45091377  0.94169373  1
  C  C22  1  0.50000000  0.50881828  0.27791927  1
  C  C23  1  0.50000000  0.51821979  0.61199596  1
  C  C24  1  0.50000000  0.51844059  0.94367464  1
  C  C25  1  0.50000000  0.57481541  0.27606084  1
  C  C26  1  0.50000000  0.58443471  0.61260445  1
  C  C27  1  0.50000000  0.58487676  0.94297730  1
  C  C28  1  0.50000000  0.65130355  0.61509536  1
  C  C29  1  0.50000000  0.65162121  0.93893199  1
  C  C30  1  0.50000000  0.71678472  0.61270503  1
  C  C31  1  0.50000000  0.71667108  0.94084979  1
  C  C32  1  0.50000000  0.28618882  0.64099599  1
  C  C33  1  0.50000000  0.28756622  0.97266002  1
  C  C34  1  0.50000000  0.35147602  0.64068055  1
  C  C35  1  0.50000000  0.35248981  0.96753632  1
  C  C36  1  0.50000000  0.41826277  0.64072426  1
  C  C37  1  0.50000000  0.41798505  0.96667402  1
  C  C38  1  0.50000000  0.47730217  0.30911042  1
  C  C39  1  0.50000000  0.48504364  0.63980460  1
  C  C40  1  0.50000000  0.48468558  0.97026866  1
  C  C41  1  0.50000000  0.54221803  0.30443009  1
  C  C42  1  0.50000000  0.55119318  0.63995029  1
  C  C43  1  0.50000000  0.55108181  0.97262218  1
  C  C44  1  0.50000000  0.61742781  0.64072216  1
  C  C45  1  0.50000000  0.61880964  0.96502336  1
  C  C46  1  0.50000000  0.68474958  0.64113870  1
  C  C47  1  0.50000000  0.68423600  0.96672756  1
  C  C48  1  0.50000000  0.28615078  0.69392663  1
  C  C49  1  0.50000000  0.35156404  0.69534045  1
  C  C50  1  0.50000000  0.41834592  0.69564753  1
  C  C51  1  0.50000000  0.48386929  0.02349397  1
  C  C52  1  0.50000000  0.47871504  0.36208036  1
  C  C53  1  0.50000000  0.48496515  0.69495285  1
  C  C54  1  0.50000000  0.54906039  0.02846055  1
  C  C55  1  0.50000000  0.54327651  0.35939594  1
  C  C56  1  0.50000000  0.55112110  0.69495281  1
  C  C57  1  0.50000000  0.61727472  0.69545043  1
  C  C58  1  0.50000000  0.68428284  0.69622054  1
  C  C59  1  0.50000000  0.31833228  0.72227203  1
  C  C60  1  0.50000000  0.38512871  0.72263991  1
  C  C61  1  0.50000000  0.45168948  0.72264858  1
  C  C62  1  0.50000000  0.51470362  0.05410523  1
  C  C63  1  0.50000000  0.51177793  0.38976375  1
  C  C64  1  0.50000000  0.51796255  0.72243712  1
  C  C65  1  0.50000000  0.57896815  0.06270724  1
  C  C66  1  0.50000000  0.57651878  0.38532617  1
  C  C67  1  0.50000000  0.58423731  0.72251320  1
  C  C68  1  0.50000000  0.65078832  0.72271323  1
  C  C69  1  0.50000000  0.71661931  0.72376748  1
  C  C70  1  0.50000000  0.31833677  0.77770650  1
  C  C71  1  0.50000000  0.38512895  0.77731602  1
  C  C72  1  0.50000000  0.45168276  0.77733480  1
  C  C73  1  0.50000000  0.51177286  0.11024252  1
  C  C74  1  0.50000000  0.51472360  0.44588627  1
  C  C75  1  0.50000000  0.51795644  0.77757680  1
  C  C76  1  0.50000000  0.57651969  0.11467683  1
  C  C77  1  0.50000000  0.57897827  0.43728161  1
  C  C78  1  0.50000000  0.58423566  0.77752969  1
  C  C79  1  0.50000000  0.65078718  0.77733753  1
  C  C80  1  0.50000000  0.71661232  0.77628097  1
  C  C81  1  0.50000000  0.28615183  0.80602965  1
  C  C82  1  0.50000000  0.35157303  0.80462343  1
  C  C83  1  0.50000000  0.41832761  0.80431987  1
  C  C84  1  0.50000000  0.47871249  0.13792751  1
  C  C85  1  0.50000000  0.48388712  0.47648167  1
  C  C86  1  0.50000000  0.48495728  0.80504836  1
  C  C87  1  0.50000000  0.54327793  0.14060110  1
  C  C88  1  0.50000000  0.54907974  0.47152138  1
  C  C89  1  0.50000000  0.55109767  0.80510903  1
  C  C90  1  0.50000000  0.61727421  0.80458815  1
  C  C91  1  0.50000000  0.68427825  0.80382745  1
  C  C92  1  0.50000000  0.28755977  0.52732983  1
  C  C93  1  0.50000000  0.28616488  0.85897212  1
  C  C94  1  0.50000000  0.35249582  0.53242302  1
  C  C95  1  0.50000000  0.35146850  0.85928977  1
  C  C96  1  0.50000000  0.41799294  0.53329304  1
  C  C97  1  0.50000000  0.41825692  0.85924321  1
  C  C98  1  0.50000000  0.47730629  0.19090012  1
  C  C99  1  0.50000000  0.48469723  0.52971754  1
  C  C100  1  0.50000000  0.48503048  0.86019286  1
  C  C101  1  0.50000000  0.54221458  0.19556811  1
  C  C102  1  0.50000000  0.55109886  0.52736577  1
  C  C103  1  0.50000000  0.55117558  0.86006035  1
  C  C104  1  0.50000000  0.61882290  0.53500802  1
  C  C105  1  0.50000000  0.61741456  0.85932305  1
  C  C106  1  0.50000000  0.68426587  0.53331626  1
  C  C107  1  0.50000000  0.68474613  0.85890657  1
  H  H108  1  0.50000000  0.74224049  0.53841421  1
  H  H109  1  0.50000000  0.74277371  0.86799632  1
  H  H110  1  0.50000000  0.74277834  0.63209947  1
  H  H111  1  0.50000000  0.74220847  0.96165889  1
  H  H112  1  0.50000000  0.26044307  0.62084808  1
  H  H113  1  0.50000000  0.26045486  0.95661470  1
  H  H114  1  0.50000000  0.26031189  0.71376351  1
  H  H115  1  0.50000000  0.74237002  0.70380424  1
  H  H116  1  0.50000000  0.74237117  0.79622310  1
  H  H117  1  0.50000000  0.26033154  0.78612796  1
  H  H118  1  0.50000000  0.26044919  0.54339510  1
  H  H119  1  0.50000000  0.26042879  0.87915013  1
  H  H120  1  0.50000000  0.60074687  0.20449539  1
  H  H121  1  0.50000000  0.60075908  0.29548077  1
  H  H122  1  0.50000000  0.28989377  0.01440144  1
  H  H123  1  0.50000000  0.35332036  0.00941918  1
  H  H124  1  0.50000000  0.41626038  0.00830999  1
  H  H125  1  0.50000000  0.45078578  0.29089215  1
  H  H126  1  0.50000000  0.62300701  0.00536151  1
  H  H127  1  0.50000000  0.68317508  0.00860064  1
  H  H128  1  0.50000000  0.45785671  0.04249379  1
  H  H129  1  0.50000000  0.45314379  0.38269010  1
  H  H130  1  0.50000000  0.60638787  0.05034557  1
  H  H131  1  0.50000000  0.60181192  0.36424897  1
  H  H132  1  0.50000000  0.60182252  0.13574756  1
  H  H133  1  0.50000000  0.60639512  0.44966762  1
  H  H134  1  0.50000000  0.45315973  0.11727094  1
  H  H135  1  0.50000000  0.45788626  0.45745025  1
  H  H136  1  0.50000000  0.28987314  0.48558090  1
  H  H137  1  0.50000000  0.35333614  0.49053889  1
  H  H138  1  0.50000000  0.41627864  0.49165478  1
  H  H139  1  0.50000000  0.45079450  0.20912716  1
  H  H140  1  0.50000000  0.62301801  0.49466563  1
  H  H141  1  0.50000000  0.68324208  0.49144433  1
