# generated using pymatgen
data_H17C54
_symmetry_space_group_name_H-M   'P 1'
_cell_length_a   20.00000000
_cell_length_b   37.22700000
_cell_length_c   26.24135560
_cell_angle_alpha   90.00000000
_cell_angle_beta   90.00000000
_cell_angle_gamma   90.00000000
_symmetry_Int_Tables_number   1
_chemical_formula_structural   H17C54
_chemical_formula_sum   'H34 C108'
_cell_volume   19537.73889753
_cell_formula_units_Z   2
loop_
 _symmetry_equiv_pos_site_id
 _symmetry_equiv_pos_as_xyz
  1  'x, y, z'
loop_
 _atom_site_type_symbol
 _atom_site_label
 _atom_site_symmetry_multiplicity
 _atom_site_fract_x
 _atom_site_fract_y
 _atom_site_fract_z
 _atom_site_occupancy
  C  C0  1  0.50000000  0.30919186  0.22212766  1
  C  C1  1  0.50000000  0.31968564  0.55566644  1
  C  C2  1  0.50000000  0.31968350  0.88827376  1
  C  C3  1  0.50000000  0.37518120  0.22393515  1
  C  C4  1  0.50000000  0.38613131  0.55660084  1
  C  C5  1  0.50000000  0.38574798  0.88777826  1
  C  C6  1  0.50000000  0.45292344  0.56126150  1
  C  C7  1  0.50000000  0.45243369  0.88458841  1
  C  C8  1  0.50000000  0.51872383  0.55977565  1
  C  C9  1  0.50000000  0.51865475  0.88519095  1
  C  C10  1  0.50000000  0.58486208  0.55904241  1
  C  C11  1  0.50000000  0.58507628  0.88586141  1
  C  C12  1  0.50000000  0.65097524  0.55833880  1
  C  C13  1  0.50000000  0.65139414  0.88676168  1
  C  C14  1  0.50000000  0.71643709  0.55799782  1
  C  C15  1  0.50000000  0.71688678  0.88867291  1
  C  C16  1  0.50000000  0.30920187  0.27784923  1
  C  C17  1  0.50000000  0.31971539  0.61166968  1
  C  C18  1  0.50000000  0.31965463  0.94427723  1
  C  C19  1  0.50000000  0.37518818  0.27601429  1
  C  C20  1  0.50000000  0.38577515  0.61216588  1
  C  C21  1  0.50000000  0.38611723  0.94334593  1
  C  C22  1  0.50000000  0.45246233  0.61540195  1
  C  C23  1  0.50000000  0.45289380  0.93872699  1
  C  C24  1  0.50000000  0.51868087  0.61480274  1
  C  C25  1  0.50000000  0.51868247  0.94021923  1
  C  C26  1  0.50000000  0.58511768  0.61417468  1
  C  C27  1  0.50000000  0.58482444  0.94099270  1
  C  C28  1  0.50000000  0.65143544  0.61331267  1
  C  C29  1  0.50000000  0.65091874  0.94173862  1
  C  C30  1  0.50000000  0.71692958  0.61141968  1
  C  C31  1  0.50000000  0.71638308  0.94208685  1
  C  C32  1  0.50000000  0.27765136  0.30897192  1
  C  C33  1  0.50000000  0.28760405  0.64025033  1
  C  C34  1  0.50000000  0.28626303  0.97085535  1
  C  C35  1  0.50000000  0.34257325  0.30431886  1
  C  C36  1  0.50000000  0.35263829  0.63957316  1
  C  C37  1  0.50000000  0.35212095  0.97298843  1
  C  C38  1  0.50000000  0.41877431  0.64062965  1
  C  C39  1  0.50000000  0.42015134  0.96522945  1
  C  C40  1  0.50000000  0.48569638  0.64202519  1
  C  C41  1  0.50000000  0.48550163  0.96566400  1
  C  C42  1  0.50000000  0.55198279  0.64139766  1
  C  C43  1  0.50000000  0.55159055  0.96661452  1
  C  C44  1  0.50000000  0.61823556  0.64084326  1
  C  C45  1  0.50000000  0.61769798  0.96745890  1
  C  C46  1  0.50000000  0.68487744  0.63987265  1
  C  C47  1  0.50000000  0.68409814  0.96847119  1
  C  C48  1  0.50000000  0.28378470  0.02319107  1
  C  C49  1  0.50000000  0.27884645  0.36183730  1
  C  C50  1  0.50000000  0.28738980  0.69318000  1
  C  C51  1  0.50000000  0.34928108  0.02897840  1
  C  C52  1  0.50000000  0.34353443  0.35927180  1
  C  C53  1  0.50000000  0.35245305  0.69470156  1
  C  C54  1  0.50000000  0.41865052  0.69553297  1
  C  C55  1  0.50000000  0.48551042  0.69628092  1
  C  C56  1  0.50000000  0.55199368  0.69576811  1
  C  C57  1  0.50000000  0.61824607  0.69551201  1
  C  C58  1  0.50000000  0.68477594  0.69542213  1
  C  C59  1  0.50000000  0.31483058  0.05443329  1
  C  C60  1  0.50000000  0.31194263  0.38967620  1
  C  C61  1  0.50000000  0.31933837  0.72210052  1
  C  C62  1  0.50000000  0.37919744  0.06301774  1
  C  C63  1  0.50000000  0.37675123  0.38509384  1
  C  C64  1  0.50000000  0.38556925  0.72258986  1
  C  C65  1  0.50000000  0.45196393  0.72278750  1
  C  C66  1  0.50000000  0.51877926  0.72283906  1
  C  C67  1  0.50000000  0.58528281  0.72267182  1
  C  C68  1  0.50000000  0.65162591  0.72266375  1
  C  C69  1  0.50000000  0.71689991  0.72366953  1
  C  C70  1  0.50000000  0.31190649  0.11029551  1
  C  C71  1  0.50000000  0.31486180  0.44554224  1
  C  C72  1  0.50000000  0.31934886  0.77786096  1
  C  C73  1  0.50000000  0.37671486  0.11487687  1
  C  C74  1  0.50000000  0.37922899  0.43695355  1
  C  C75  1  0.50000000  0.38557362  0.77738699  1
  C  C76  1  0.50000000  0.45195764  0.77719281  1
  C  C77  1  0.50000000  0.51876480  0.77716317  1
  C  C78  1  0.50000000  0.58527243  0.77736620  1
  C  C79  1  0.50000000  0.65161656  0.77737554  1
  C  C80  1  0.50000000  0.71688589  0.77643016  1
  C  C81  1  0.50000000  0.27881974  0.13815413  1
  C  C82  1  0.50000000  0.28381632  0.47677152  1
  C  C83  1  0.50000000  0.28738013  0.80673434  1
  C  C84  1  0.50000000  0.34350131  0.14068487  1
  C  C85  1  0.50000000  0.34931383  0.47098485  1
  C  C86  1  0.50000000  0.35245569  0.80527512  1
  C  C87  1  0.50000000  0.41865065  0.80444132  1
  C  C88  1  0.50000000  0.48549793  0.80372186  1
  C  C89  1  0.50000000  0.55197965  0.80424345  1
  C  C90  1  0.50000000  0.61823569  0.80454393  1
  C  C91  1  0.50000000  0.68475820  0.80466256  1
  C  C92  1  0.50000000  0.27763580  0.19101029  1
  C  C93  1  0.50000000  0.28629989  0.52910189  1
  C  C94  1  0.50000000  0.28759413  0.85967667  1
  C  C95  1  0.50000000  0.34256075  0.19564310  1
  C  C96  1  0.50000000  0.35214342  0.52696514  1
  C  C97  1  0.50000000  0.35261578  0.86037889  1
  C  C98  1  0.50000000  0.42017987  0.53475040  1
  C  C99  1  0.50000000  0.41874198  0.85932904  1
  C  C100  1  0.50000000  0.48552976  0.53431021  1
  C  C101  1  0.50000000  0.48565947  0.85797592  1
  C  C102  1  0.50000000  0.55163273  0.53341808  1
  C  C103  1  0.50000000  0.55194907  0.85860138  1
  C  C104  1  0.50000000  0.61775850  0.53260953  1
  C  C105  1  0.50000000  0.61819649  0.85921483  1
  C  C106  1  0.50000000  0.68416309  0.53159906  1
  C  C107  1  0.50000000  0.68484333  0.86021820  1
  H  H108  1  0.50000000  0.74199860  0.53726771  1
  H  H109  1  0.50000000  0.74301246  0.86958723  1
  H  H110  1  0.50000000  0.74304682  0.63048909  1
  H  H111  1  0.50000000  0.74192628  0.96283433  1
  H  H112  1  0.50000000  0.25122102  0.29055958  1
  H  H113  1  0.50000000  0.26158517  0.62092007  1
  H  H114  1  0.50000000  0.26110197  0.94942286  1
  H  H115  1  0.50000000  0.25707996  0.04059249  1
  H  H116  1  0.50000000  0.25315413  0.38214013  1
  H  H117  1  0.50000000  0.26130027  0.71237103  1
  H  H118  1  0.50000000  0.74285474  0.70418866  1
  H  H119  1  0.50000000  0.74284146  0.79593740  1
  H  H120  1  0.50000000  0.25313870  0.11782964  1
  H  H121  1  0.50000000  0.25709813  0.45940054  1
  H  H122  1  0.50000000  0.26129087  0.78756945  1
  H  H123  1  0.50000000  0.25119301  0.20940456  1
  H  H124  1  0.50000000  0.26113664  0.55052428  1
  H  H125  1  0.50000000  0.26159028  0.87900713  1
  H  H126  1  0.50000000  0.40114069  0.20456965  1
  H  H127  1  0.50000000  0.40115296  0.29536639  1
  H  H128  1  0.50000000  0.42436489  0.00560474  1
  H  H129  1  0.50000000  0.48505218  0.00746406  1
  H  H130  1  0.50000000  0.55122869  0.00837575  1
  H  H131  1  0.50000000  0.61733792  0.00927174  1
  H  H132  1  0.50000000  0.68380174  0.01020998  1
  H  H133  1  0.50000000  0.40657598  0.05031668  1
  H  H134  1  0.50000000  0.40207053  0.36418944  1
  H  H135  1  0.50000000  0.40202222  0.13581183  1
  H  H136  1  0.50000000  0.40661589  0.44963352  1
  H  H137  1  0.50000000  0.42439152  0.49439160  1
  H  H138  1  0.50000000  0.48508703  0.49251974  1
  H  H139  1  0.50000000  0.55130298  0.49165513  1
  H  H140  1  0.50000000  0.61742819  0.49079495  1
  H  H141  1  0.50000000  0.68383204  0.48984444  1
