# generated using pymatgen
data_H23C54
_symmetry_space_group_name_H-M   'P 1'
_cell_length_a   20.00000000
_cell_length_b   37.22700000
_cell_length_c   26.57955671
_cell_angle_alpha   90.00000000
_cell_angle_beta   90.00000000
_cell_angle_gamma   90.00000000
_symmetry_Int_Tables_number   1
_chemical_formula_structural   H23C54
_chemical_formula_sum   'H46 C108'
_cell_volume   19789.54314974
_cell_formula_units_Z   2
loop_
 _symmetry_equiv_pos_site_id
 _symmetry_equiv_pos_as_xyz
  1  'x, y, z'
loop_
 _atom_site_type_symbol
 _atom_site_label
 _atom_site_symmetry_multiplicity
 _atom_site_fract_x
 _atom_site_fract_y
 _atom_site_fract_z
 _atom_site_occupancy
  C  C0  1  0.50000000  0.28997503  0.22460382  1
  C  C1  1  0.50000000  0.32159277  0.55947760  1
  C  C2  1  0.50000000  0.32113136  0.88644227  1
  C  C3  1  0.50000000  0.38802296  0.56281442  1
  C  C4  1  0.50000000  0.38786523  0.88419071  1
  C  C5  1  0.50000000  0.45379442  0.56220499  1
  C  C6  1  0.50000000  0.45397574  0.88412497  1
  C  C7  1  0.50000000  0.51977066  0.56182199  1
  C  C8  1  0.50000000  0.52024742  0.88398397  1
  C  C9  1  0.50000000  0.58577643  0.56161065  1
  C  C10  1  0.50000000  0.58653557  0.88375662  1
  C  C11  1  0.50000000  0.65206318  0.55911807  1
  C  C12  1  0.50000000  0.65304781  0.88491960  1
  C  C13  1  0.50000000  0.71600195  0.22348571  1
  C  C14  1  0.50000000  0.71831432  0.56006304  1
  C  C15  1  0.50000000  0.71851036  0.88713331  1
  C  C16  1  0.50000000  0.28986364  0.27642214  1
  C  C17  1  0.50000000  0.32089679  0.61463416  1
  C  C18  1  0.50000000  0.32184477  0.94158820  1
  C  C19  1  0.50000000  0.38761702  0.61669288  1
  C  C20  1  0.50000000  0.38836854  0.93807824  1
  C  C21  1  0.50000000  0.45373117  0.61643665  1
  C  C22  1  0.50000000  0.45417024  0.93837348  1
  C  C23  1  0.50000000  0.51994585  0.61615802  1
  C  C24  1  0.50000000  0.52022415  0.93831168  1
  C  C25  1  0.50000000  0.58618729  0.61582276  1
  C  C26  1  0.50000000  0.58622714  0.93794882  1
  C  C27  1  0.50000000  0.65267974  0.61408609  1
  C  C28  1  0.50000000  0.65253870  0.93984456  1
  C  C29  1  0.50000000  0.71573083  0.27592753  1
  C  C30  1  0.50000000  0.71818610  0.61161245  1
  C  C31  1  0.50000000  0.71875907  0.93871642  1
  C  C32  1  0.50000000  0.26011103  0.31020658  1
  C  C33  1  0.50000000  0.28878279  0.64277673  1
  C  C34  1  0.50000000  0.28834248  0.96997960  1
  C  C35  1  0.50000000  0.35400976  0.64239427  1
  C  C36  1  0.50000000  0.35526554  0.96442995  1
  C  C37  1  0.50000000  0.42064486  0.64323649  1
  C  C38  1  0.50000000  0.42102995  0.96408471  1
  C  C39  1  0.50000000  0.48692533  0.64288522  1
  C  C40  1  0.50000000  0.48728108  0.96401872  1
  C  C41  1  0.50000000  0.55313466  0.64271128  1
  C  C42  1  0.50000000  0.55354968  0.96386918  1
  C  C43  1  0.50000000  0.61946031  0.64166526  1
  C  C44  1  0.50000000  0.61947890  0.96390485  1
  C  C45  1  0.50000000  0.68549850  0.30838560  1
  C  C46  1  0.50000000  0.68559379  0.64054318  1
  C  C47  1  0.50000000  0.68652395  0.96814363  1
  C  C48  1  0.50000000  0.28103147  0.02083160  1
  C  C49  1  0.50000000  0.26340382  0.36208578  1
  C  C50  1  0.50000000  0.28879015  0.69494147  1
  C  C51  1  0.50000000  0.35395790  0.69644729  1
  C  C52  1  0.50000000  0.42050223  0.69705646  1
  C  C53  1  0.50000000  0.48694621  0.69669956  1
  C  C54  1  0.50000000  0.55328446  0.69646330  1
  C  C55  1  0.50000000  0.61960958  0.69568041  1
  C  C56  1  0.50000000  0.68703646  0.02106967  1
  C  C57  1  0.50000000  0.68580382  0.36088051  1
  C  C58  1  0.50000000  0.68590437  0.69502617  1
  C  C59  1  0.50000000  0.30504976  0.06276351  1
  C  C60  1  0.50000000  0.29709035  0.38753614  1
  C  C61  1  0.50000000  0.32083433  0.72326072  1
  C  C62  1  0.50000000  0.38730564  0.72348734  1
  C  C63  1  0.50000000  0.45379352  0.72348522  1
  C  C64  1  0.50000000  0.52007256  0.72324615  1
  C  C65  1  0.50000000  0.58656180  0.72284001  1
  C  C66  1  0.50000000  0.65288615  0.72245266  1
  C  C67  1  0.50000000  0.71714534  0.05314984  1
  C  C68  1  0.50000000  0.71625518  0.39288045  1
  C  C69  1  0.50000000  0.71820023  0.72332502  1
  C  C70  1  0.50000000  0.29723663  0.11339005  1
  C  C71  1  0.50000000  0.30513176  0.43810211  1
  C  C72  1  0.50000000  0.32090826  0.77788280  1
  C  C73  1  0.50000000  0.38736242  0.77736519  1
  C  C74  1  0.50000000  0.45384388  0.77705333  1
  C  C75  1  0.50000000  0.52012606  0.77694723  1
  C  C76  1  0.50000000  0.58661718  0.77683290  1
  C  C77  1  0.50000000  0.65296441  0.77654705  1
  C  C78  1  0.50000000  0.71681858  0.10582272  1
  C  C79  1  0.50000000  0.71678788  0.44556357  1
  C  C80  1  0.50000000  0.71832970  0.77528488  1
  C  C81  1  0.50000000  0.26358071  0.13881681  1
  C  C82  1  0.50000000  0.28113202  0.48002698  1
  C  C83  1  0.50000000  0.28891247  0.80626752  1
  C  C84  1  0.50000000  0.35407654  0.80455519  1
  C  C85  1  0.50000000  0.42061232  0.80364264  1
  C  C86  1  0.50000000  0.48705799  0.80368080  1
  C  C87  1  0.50000000  0.55341193  0.80347045  1
  C  C88  1  0.50000000  0.61977782  0.80365511  1
  C  C89  1  0.50000000  0.68646391  0.13795368  1
  C  C90  1  0.50000000  0.68667528  0.47773532  1
  C  C91  1  0.50000000  0.68608638  0.80377535  1
  C  C92  1  0.50000000  0.26029920  0.19068177  1
  C  C93  1  0.50000000  0.28819906  0.53094796  1
  C  C94  1  0.50000000  0.28897320  0.85840859  1
  C  C95  1  0.50000000  0.35493631  0.53650990  1
  C  C96  1  0.50000000  0.35421691  0.85860704  1
  C  C97  1  0.50000000  0.42060744  0.53670936  1
  C  C98  1  0.50000000  0.42083302  0.85746137  1
  C  C99  1  0.50000000  0.48678017  0.53628083  1
  C  C100  1  0.50000000  0.48712934  0.85750628  1
  C  C101  1  0.50000000  0.55299528  0.53602249  1
  C  C102  1  0.50000000  0.55337550  0.85720589  1
  C  C103  1  0.50000000  0.61891450  0.53527141  1
  C  C104  1  0.50000000  0.61974280  0.85764610  1
  C  C105  1  0.50000000  0.68604633  0.19045548  1
  C  C106  1  0.50000000  0.68604770  0.53069399  1
  C  C107  1  0.50000000  0.68589559  0.85827155  1
  H  H108  1  0.50000000  0.74280786  0.20619898  1
  H  H109  1  0.50000000  0.74428130  0.54076630  1
  H  H110  1  0.50000000  0.74432163  0.86748473  1
  H  H111  1  0.50000000  0.74227860  0.29402255  1
  H  H112  1  0.50000000  0.74405113  0.63106422  1
  H  H113  1  0.50000000  0.74472267  0.95805266  1
  H  H114  1  0.50000000  0.23286516  0.29437246  1
  H  H115  1  0.50000000  0.26275567  0.62376188  1
  H  H116  1  0.50000000  0.26404951  0.94676360  1
  H  H117  1  0.50000000  0.25227980  0.03018338  1
  H  H118  1  0.50000000  0.23862220  0.38442320  1
  H  H119  1  0.50000000  0.26279122  0.71402066  1
  H  H120  1  0.50000000  0.74385264  0.03566682  1
  H  H121  1  0.50000000  0.74272005  0.37457720  1
  H  H122  1  0.50000000  0.74406398  0.70394151  1
  H  H123  1  0.50000000  0.74334728  0.12387070  1
  H  H124  1  0.50000000  0.74361224  0.46270538  1
  H  H125  1  0.50000000  0.74434892  0.79436087  1
  H  H126  1  0.50000000  0.23884330  0.11639890  1
  H  H127  1  0.50000000  0.25245772  0.47028988  1
  H  H128  1  0.50000000  0.26295647  0.78711153  1
  H  H129  1  0.50000000  0.23304413  0.20643736  1
  H  H130  1  0.50000000  0.26385171  0.55402725  1
  H  H131  1  0.50000000  0.26301803  0.87759988  1
  H  H132  1  0.50000000  0.31683206  0.20764932  1
  H  H133  1  0.50000000  0.31663824  0.29361162  1
  H  H134  1  0.50000000  0.35760321  0.00510303  1
  H  H135  1  0.50000000  0.42087954  0.00537315  1
  H  H136  1  0.50000000  0.48719341  0.00524320  1
  H  H137  1  0.50000000  0.55362388  0.00513451  1
  H  H138  1  0.50000000  0.61798147  0.00500373  1
  H  H139  1  0.50000000  0.65882255  0.29068553  1
  H  H140  1  0.50000000  0.66095711  0.04005674  1
  H  H141  1  0.50000000  0.65921912  0.37888745  1
  H  H142  1  0.50000000  0.33382173  0.05525607  1
  H  H143  1  0.50000000  0.32096004  0.36343908  1
  H  H144  1  0.50000000  0.32100816  0.13773557  1
  H  H145  1  0.50000000  0.33397626  0.44510116  1
  H  H146  1  0.50000000  0.65986777  0.11996842  1
  H  H147  1  0.50000000  0.66069755  0.45846035  1
  H  H148  1  0.50000000  0.35717767  0.49582989  1
  H  H149  1  0.50000000  0.42038208  0.49545558  1
  H  H150  1  0.50000000  0.48647903  0.49503668  1
  H  H151  1  0.50000000  0.55285612  0.49477106  1
  H  H152  1  0.50000000  0.61701036  0.49414412  1
  H  H153  1  0.50000000  0.65919861  0.20763848  1
