# generated using pymatgen
data_H2C7
_symmetry_space_group_name_H-M   'P 1'
_cell_length_a   10.00000000
_cell_length_b   41.10890000
_cell_length_c   26.17778061
_cell_angle_alpha   90.00000000
_cell_angle_beta   90.00000000
_cell_angle_gamma   90.00000000
_symmetry_Int_Tables_number   1
_chemical_formula_structural   H2C7
_chemical_formula_sum   'H36 C126'
_cell_volume   10761.39765513
_cell_formula_units_Z   18
loop_
 _symmetry_equiv_pos_site_id
 _symmetry_equiv_pos_as_xyz
  1  'x, y, z'
loop_
 _atom_site_type_symbol
 _atom_site_label
 _atom_site_symmetry_multiplicity
 _atom_site_fract_x
 _atom_site_fract_y
 _atom_site_fract_z
 _atom_site_occupancy
  C  C0  1  0.50000000  0.29001096  0.63945298  1
  C  C1  1  0.50000000  0.29085412  0.96898431  1
  C  C2  1  0.50000000  0.35043488  0.64056312  1
  C  C3  1  0.50000000  0.35087137  0.96785654  1
  C  C4  1  0.50000000  0.41048835  0.64097481  1
  C  C5  1  0.50000000  0.41079598  0.96743353  1
  C  C6  1  0.50000000  0.47054668  0.64123911  1
  C  C7  1  0.50000000  0.47077136  0.96700993  1
  C  C8  1  0.50000000  0.53087387  0.64071508  1
  C  C9  1  0.50000000  0.53059895  0.96678995  1
  C  C10  1  0.50000000  0.58499822  0.30891879  1
  C  C11  1  0.50000000  0.59117725  0.63967996  1
  C  C12  1  0.50000000  0.59122960  0.97053167  1
  C  C13  1  0.50000000  0.64377035  0.30448884  1
  C  C14  1  0.50000000  0.65101587  0.63965141  1
  C  C15  1  0.50000000  0.65170013  0.97265722  1
  C  C16  1  0.50000000  0.71113504  0.64058579  1
  C  C17  1  0.50000000  0.71391051  0.96460271  1
  C  C18  1  0.50000000  0.29003359  0.69515012  1
  C  C19  1  0.50000000  0.35036080  0.69538064  1
  C  C20  1  0.50000000  0.41043766  0.69554434  1
  C  C21  1  0.50000000  0.47060026  0.69584114  1
  C  C22  1  0.50000000  0.53095870  0.69556384  1
  C  C23  1  0.50000000  0.59069878  0.02372790  1
  C  C24  1  0.50000000  0.58599105  0.36189534  1
  C  C25  1  0.50000000  0.59108336  0.69467663  1
  C  C26  1  0.50000000  0.64988561  0.02853421  1
  C  C27  1  0.50000000  0.64457153  0.35948659  1
  C  C28  1  0.50000000  0.65077047  0.69474989  1
  C  C29  1  0.50000000  0.71062333  0.69585101  1
  C  C30  1  0.50000000  0.26095890  0.72349713  1
  C  C31  1  0.50000000  0.32007513  0.72253957  1
  C  C32  1  0.50000000  0.38026813  0.72254643  1
  C  C33  1  0.50000000  0.44050681  0.72270517  1
  C  C34  1  0.50000000  0.50082405  0.72274267  1
  C  C35  1  0.50000000  0.56104089  0.72255548  1
  C  C36  1  0.50000000  0.61876037  0.05417662  1
  C  C37  1  0.50000000  0.61594561  0.38969173  1
  C  C38  1  0.50000000  0.62098826  0.72228762  1
  C  C39  1  0.50000000  0.67706918  0.06257474  1
  C  C40  1  0.50000000  0.67463614  0.38550914  1
  C  C41  1  0.50000000  0.68068431  0.72262299  1
  C  C42  1  0.50000000  0.73984152  0.72374287  1
  C  C43  1  0.50000000  0.26095887  0.77639232  1
  C  C44  1  0.50000000  0.32007750  0.77740307  1
  C  C45  1  0.50000000  0.38026805  0.77739147  1
  C  C46  1  0.50000000  0.44051127  0.77730579  1
  C  C47  1  0.50000000  0.50083927  0.77730392  1
  C  C48  1  0.50000000  0.56106160  0.77748156  1
  C  C49  1  0.50000000  0.61605632  0.11035253  1
  C  C50  1  0.50000000  0.61864632  0.44585977  1
  C  C51  1  0.50000000  0.62102148  0.77763986  1
  C  C52  1  0.50000000  0.67475983  0.11458540  1
  C  C53  1  0.50000000  0.67696289  0.43750808  1
  C  C54  1  0.50000000  0.68068916  0.77737020  1
  C  C55  1  0.50000000  0.73984029  0.77623496  1
  C  C56  1  0.50000000  0.29003043  0.80473704  1
  C  C57  1  0.50000000  0.35035788  0.80454339  1
  C  C58  1  0.50000000  0.41043152  0.80442200  1
  C  C59  1  0.50000000  0.47060577  0.80418710  1
  C  C60  1  0.50000000  0.53098765  0.80448417  1
  C  C61  1  0.50000000  0.58609238  0.13816221  1
  C  C62  1  0.50000000  0.59059604  0.47632077  1
  C  C63  1  0.50000000  0.59112587  0.80532747  1
  C  C64  1  0.50000000  0.64467202  0.14059129  1
  C  C65  1  0.50000000  0.64977176  0.47152491  1
  C  C66  1  0.50000000  0.65080263  0.80529711  1
  C  C67  1  0.50000000  0.71063515  0.80411567  1
  C  C68  1  0.50000000  0.29089630  0.53090886  1
  C  C69  1  0.50000000  0.28999751  0.86044319  1
  C  C70  1  0.50000000  0.35090223  0.53208358  1
  C  C71  1  0.50000000  0.35042718  0.85936599  1
  C  C72  1  0.50000000  0.41080743  0.53254143  1
  C  C73  1  0.50000000  0.41049271  0.85900816  1
  C  C74  1  0.50000000  0.47073669  0.53302135  1
  C  C75  1  0.50000000  0.47056379  0.85879827  1
  C  C76  1  0.50000000  0.53053600  0.53327484  1
  C  C77  1  0.50000000  0.53092993  0.85932899  1
  C  C78  1  0.50000000  0.58503043  0.19113399  1
  C  C79  1  0.50000000  0.59113420  0.52950770  1
  C  C80  1  0.50000000  0.59125004  0.86033836  1
  C  C81  1  0.50000000  0.64380171  0.19560134  1
  C  C82  1  0.50000000  0.65160015  0.52738149  1
  C  C83  1  0.50000000  0.65109351  0.86037513  1
  C  C84  1  0.50000000  0.71378478  0.53539828  1
  C  C85  1  0.50000000  0.71117895  0.85937150  1
  C  C86  1  0.50000000  0.26162447  0.55713490  1
  C  C87  1  0.50000000  0.26106516  0.88914981  1
  C  C88  1  0.50000000  0.32085264  0.55789844  1
  C  C89  1  0.50000000  0.32035913  0.88691637  1
  C  C90  1  0.50000000  0.38072491  0.55843588  1
  C  C91  1  0.50000000  0.38045469  0.88620356  1
  C  C92  1  0.50000000  0.44065250  0.55886982  1
  C  C93  1  0.50000000  0.44063835  0.88590821  1
  C  C94  1  0.50000000  0.50043295  0.55945373  1
  C  C95  1  0.50000000  0.50071707  0.88575331  1
  C  C96  1  0.50000000  0.56037647  0.55808491  1
  C  C97  1  0.50000000  0.56096444  0.88702134  1
  C  C98  1  0.50000000  0.61358764  0.22214448  1
  C  C99  1  0.50000000  0.62180440  0.55609107  1
  C  C100  1  0.50000000  0.62147248  0.88826234  1
  C  C101  1  0.50000000  0.67330244  0.22398867  1
  C  C102  1  0.50000000  0.68227319  0.55701523  1
  C  C103  1  0.50000000  0.68143850  0.88788620  1
  C  C104  1  0.50000000  0.74251338  0.56317661  1
  C  C105  1  0.50000000  0.74140757  0.88417718  1
  C  C106  1  0.50000000  0.26109152  0.61072472  1
  C  C107  1  0.50000000  0.26158297  0.94273816  1
  C  C108  1  0.50000000  0.32037031  0.61299170  1
  C  C109  1  0.50000000  0.32083146  0.94200388  1
  C  C110  1  0.50000000  0.38046351  0.61373735  1
  C  C111  1  0.50000000  0.38070628  0.94150498  1
  C  C112  1  0.50000000  0.44063007  0.61410483  1
  C  C113  1  0.50000000  0.44066534  0.94114676  1
  C  C114  1  0.50000000  0.50067710  0.61428404  1
  C  C115  1  0.50000000  0.50048557  0.94059268  1
  C  C116  1  0.50000000  0.56088855  0.61302049  1
  C  C117  1  0.50000000  0.56045322  0.94198096  1
  C  C118  1  0.50000000  0.61357045  0.27791216  1
  C  C119  1  0.50000000  0.62140476  0.61178943  1
  C  C120  1  0.50000000  0.62188459  0.94395654  1
  C  C121  1  0.50000000  0.67329779  0.27616717  1
  C  C122  1  0.50000000  0.68136500  0.61214829  1
  C  C123  1  0.50000000  0.68238325  0.94301575  1
  C  C124  1  0.50000000  0.74134206  0.61574167  1
  C  C125  1  0.50000000  0.74261957  0.93673508  1
  H  H126  1  0.50000000  0.23748387  0.70389185  1
  H  H127  1  0.50000000  0.76339158  0.70458981  1
  H  H128  1  0.50000000  0.23747524  0.79596560  1
  H  H129  1  0.50000000  0.76335191  0.79552407  1
  H  H130  1  0.50000000  0.23864560  0.53595321  1
  H  H131  1  0.50000000  0.23746142  0.86988965  1
  H  H132  1  0.50000000  0.76589997  0.54305067  1
  H  H133  1  0.50000000  0.76412940  0.86279431  1
  H  H134  1  0.50000000  0.23749903  0.63000897  1
  H  H135  1  0.50000000  0.23860056  0.96393517  1
  H  H136  1  0.50000000  0.76407398  0.63708615  1
  H  H137  1  0.50000000  0.76602717  0.95682882  1
  H  H138  1  0.50000000  0.29121219  0.01082922  1
  H  H139  1  0.50000000  0.35101364  0.00976802  1
  H  H140  1  0.50000000  0.41085557  0.00936095  1
  H  H141  1  0.50000000  0.47083906  0.00891914  1
  H  H142  1  0.50000000  0.52930419  0.00847190  1
  H  H143  1  0.50000000  0.56115431  0.29033184  1
  H  H144  1  0.50000000  0.71805168  0.00498954  1
  H  H145  1  0.50000000  0.56727527  0.04312115  1
  H  H146  1  0.50000000  0.56268469  0.38219606  1
  H  H147  1  0.50000000  0.70193153  0.05006741  1
  H  H148  1  0.50000000  0.69746550  0.36430271  1
  H  H149  1  0.50000000  0.69760954  0.13576020  1
  H  H150  1  0.50000000  0.70183065  0.44998973  1
  H  H151  1  0.50000000  0.56274192  0.11801014  1
  H  H152  1  0.50000000  0.56716530  0.45694549  1
  H  H153  1  0.50000000  0.29127394  0.48907314  1
  H  H154  1  0.50000000  0.35108899  0.49018627  1
  H  H155  1  0.50000000  0.41090012  0.49061415  1
  H  H156  1  0.50000000  0.47080325  0.49111625  1
  H  H157  1  0.50000000  0.52921645  0.49159683  1
  H  H158  1  0.50000000  0.56114720  0.20963789  1
  H  H159  1  0.50000000  0.71790781  0.49500497  1
  H  H160  1  0.50000000  0.69676103  0.20451643  1
  H  H161  1  0.50000000  0.69676185  0.29563200  1
