# generated using pymatgen
data_H2C7
_symmetry_space_group_name_H-M   'P 1'
_cell_length_a   10.00000000
_cell_length_b   41.10890000
_cell_length_c   26.19788641
_cell_angle_alpha   90.00000000
_cell_angle_beta   90.00000000
_cell_angle_gamma   90.00000000
_symmetry_Int_Tables_number   1
_chemical_formula_structural   H2C7
_chemical_formula_sum   'H36 C126'
_cell_volume   10769.66292769
_cell_formula_units_Z   18
loop_
 _symmetry_equiv_pos_site_id
 _symmetry_equiv_pos_as_xyz
  1  'x, y, z'
loop_
 _atom_site_type_symbol
 _atom_site_label
 _atom_site_symmetry_multiplicity
 _atom_site_fract_x
 _atom_site_fract_y
 _atom_site_fract_z
 _atom_site_occupancy
  C  C0  1  0.50000000  0.28791873  0.63969254  1
  C  C1  1  0.50000000  0.28875217  0.96886305  1
  C  C2  1  0.50000000  0.34826427  0.64073047  1
  C  C3  1  0.50000000  0.34871570  0.96778605  1
  C  C4  1  0.50000000  0.40819927  0.64122060  1
  C  C5  1  0.50000000  0.40864657  0.96706662  1
  C  C6  1  0.50000000  0.46815354  0.64202280  1
  C  C7  1  0.50000000  0.46849903  0.96580857  1
  C  C8  1  0.50000000  0.52880012  0.64083748  1
  C  C9  1  0.50000000  0.52762063  0.96492581  1
  C  C10  1  0.50000000  0.59722287  0.30435151  1
  C  C11  1  0.50000000  0.58873760  0.63989101  1
  C  C12  1  0.50000000  0.58897132  0.97266188  1
  C  C13  1  0.50000000  0.65599657  0.30901927  1
  C  C14  1  0.50000000  0.64849609  0.63966801  1
  C  C15  1  0.50000000  0.64919252  0.97021563  1
  C  C16  1  0.50000000  0.70904742  0.64020814  1
  C  C17  1  0.50000000  0.70998262  0.96683094  1
  C  C18  1  0.50000000  0.28797971  0.69533419  1
  C  C19  1  0.50000000  0.34822259  0.69548592  1
  C  C20  1  0.50000000  0.40818420  0.69567959  1
  C  C21  1  0.50000000  0.46832991  0.69629758  1
  C  C22  1  0.50000000  0.52884256  0.69559479  1
  C  C23  1  0.50000000  0.59087454  0.02848875  1
  C  C24  1  0.50000000  0.59630317  0.35930505  1
  C  C25  1  0.50000000  0.58879341  0.69489010  1
  C  C26  1  0.50000000  0.64996644  0.02344957  1
  C  C27  1  0.50000000  0.65482190  0.36198703  1
  C  C28  1  0.50000000  0.64846706  0.69457972  1
  C  C29  1  0.50000000  0.70862796  0.69561157  1
  C  C30  1  0.50000000  0.25892597  0.72362597  1
  C  C31  1  0.50000000  0.31800346  0.72263843  1
  C  C32  1  0.50000000  0.37806644  0.72265031  1
  C  C33  1  0.50000000  0.43819340  0.72282990  1
  C  C34  1  0.50000000  0.49869266  0.72277010  1
  C  C35  1  0.50000000  0.56382499  0.06279554  1
  C  C36  1  0.50000000  0.56618091  0.38523431  1
  C  C37  1  0.50000000  0.55884119  0.72261446  1
  C  C38  1  0.50000000  0.62205577  0.05409799  1
  C  C39  1  0.50000000  0.62484310  0.38967135  1
  C  C40  1  0.50000000  0.61868449  0.72235301  1
  C  C41  1  0.50000000  0.67854729  0.72250410  1
  C  C42  1  0.50000000  0.73777995  0.72367368  1
  C  C43  1  0.50000000  0.25893502  0.77647161  1
  C  C44  1  0.50000000  0.31800386  0.77742588  1
  C  C45  1  0.50000000  0.37807299  0.77739490  1
  C  C46  1  0.50000000  0.43821411  0.77718148  1
  C  C47  1  0.50000000  0.49869686  0.77719252  1
  C  C48  1  0.50000000  0.56620827  0.11472922  1
  C  C49  1  0.50000000  0.56379432  0.43717507  1
  C  C50  1  0.50000000  0.55883712  0.77737180  1
  C  C51  1  0.50000000  0.62486570  0.11028828  1
  C  C52  1  0.50000000  0.62203482  0.44586011  1
  C  C53  1  0.50000000  0.61868241  0.77760735  1
  C  C54  1  0.50000000  0.67855881  0.77745585  1
  C  C55  1  0.50000000  0.73778822  0.77628392  1
  C  C56  1  0.50000000  0.28798931  0.80474517  1
  C  C57  1  0.50000000  0.34822711  0.80457491  1
  C  C58  1  0.50000000  0.40819697  0.80434349  1
  C  C59  1  0.50000000  0.46833857  0.80370352  1
  C  C60  1  0.50000000  0.52885254  0.80439209  1
  C  C61  1  0.50000000  0.59632549  0.14066070  1
  C  C62  1  0.50000000  0.59085418  0.47147452  1
  C  C63  1  0.50000000  0.58879582  0.80508895  1
  C  C64  1  0.50000000  0.65483798  0.13799911  1
  C  C65  1  0.50000000  0.64993706  0.47649992  1
  C  C66  1  0.50000000  0.64847239  0.80537788  1
  C  C67  1  0.50000000  0.70862008  0.80433696  1
  C  C68  1  0.50000000  0.28872700  0.53122829  1
  C  C69  1  0.50000000  0.28793803  0.86039295  1
  C  C70  1  0.50000000  0.34868974  0.53227957  1
  C  C71  1  0.50000000  0.34828251  0.85934660  1
  C  C72  1  0.50000000  0.40861596  0.53294717  1
  C  C73  1  0.50000000  0.40822523  0.85880932  1
  C  C74  1  0.50000000  0.46847077  0.53422889  1
  C  C75  1  0.50000000  0.46820023  0.85798589  1
  C  C76  1  0.50000000  0.52760727  0.53507484  1
  C  C77  1  0.50000000  0.52879021  0.85915331  1
  C  C78  1  0.50000000  0.59723383  0.19561600  1
  C  C79  1  0.50000000  0.58895418  0.52731805  1
  C  C80  1  0.50000000  0.58874514  0.86010288  1
  C  C81  1  0.50000000  0.65601459  0.19096273  1
  C  C82  1  0.50000000  0.64916003  0.52973434  1
  C  C83  1  0.50000000  0.64850487  0.86028960  1
  C  C84  1  0.50000000  0.70994886  0.53310103  1
  C  C85  1  0.50000000  0.70905828  0.85975090  1
  C  C86  1  0.50000000  0.25946334  0.55747834  1
  C  C87  1  0.50000000  0.25902483  0.88906418  1
  C  C88  1  0.50000000  0.31868925  0.55816534  1
  C  C89  1  0.50000000  0.31825251  0.88688867  1
  C  C90  1  0.50000000  0.37849899  0.55864217  1
  C  C91  1  0.50000000  0.37825631  0.88614406  1
  C  C92  1  0.50000000  0.43833249  0.55954302  1
  C  C93  1  0.50000000  0.43836024  0.88537668  1
  C  C94  1  0.50000000  0.49787721  0.56133418  1
  C  C95  1  0.50000000  0.49830943  0.88447819  1
  C  C96  1  0.50000000  0.56769502  0.22392788  1
  C  C97  1  0.50000000  0.55833914  0.55705748  1
  C  C98  1  0.50000000  0.55878228  0.88740787  1
  C  C99  1  0.50000000  0.62748819  0.22210430  1
  C  C100  1  0.50000000  0.61852463  0.55620792  1
  C  C101  1  0.50000000  0.61867765  0.88806762  1
  C  C102  1  0.50000000  0.67971836  0.55825597  1
  C  C103  1  0.50000000  0.67911874  0.88724713  1
  C  C104  1  0.50000000  0.73905957  0.56020495  1
  C  C105  1  0.50000000  0.73864390  0.88672456  1
  C  C106  1  0.50000000  0.25899935  0.61102604  1
  C  C107  1  0.50000000  0.25949394  0.94260456  1
  C  C108  1  0.50000000  0.31822927  0.61318785  1
  C  C109  1  0.50000000  0.31871085  0.94190379  1
  C  C110  1  0.50000000  0.37823191  0.61390546  1
  C  C111  1  0.50000000  0.37852220  0.94140874  1
  C  C112  1  0.50000000  0.43833246  0.61464798  1
  C  C113  1  0.50000000  0.43836375  0.94048550  1
  C  C114  1  0.50000000  0.49829139  0.61553333  1
  C  C115  1  0.50000000  0.49789440  0.93866134  1
  C  C116  1  0.50000000  0.56768952  0.27603985  1
  C  C117  1  0.50000000  0.55877232  0.61258120  1
  C  C118  1  0.50000000  0.55835401  0.94293767  1
  C  C119  1  0.50000000  0.62747822  0.27788085  1
  C  C120  1  0.50000000  0.61866049  0.61190213  1
  C  C121  1  0.50000000  0.61854449  0.94377777  1
  C  C122  1  0.50000000  0.67911245  0.61268796  1
  C  C123  1  0.50000000  0.67974285  0.94168313  1
  C  C124  1  0.50000000  0.73862009  0.61320371  1
  C  C125  1  0.50000000  0.73907890  0.93974067  1
  H  H126  1  0.50000000  0.23553345  0.70387562  1
  H  H127  1  0.50000000  0.76120938  0.70404690  1
  H  H128  1  0.50000000  0.23554866  0.79623303  1
  H  H129  1  0.50000000  0.76120579  0.79586475  1
  H  H130  1  0.50000000  0.23643684  0.53640843  1
  H  H131  1  0.50000000  0.23546474  0.86977553  1
  H  H132  1  0.50000000  0.76230069  0.53976253  1
  H  H133  1  0.50000000  0.76174225  0.86619662  1
  H  H134  1  0.50000000  0.23545483  0.63036323  1
  H  H135  1  0.50000000  0.23645064  0.96362022  1
  H  H136  1  0.50000000  0.76176269  0.63364745  1
  H  H137  1  0.50000000  0.76230006  0.96021946  1
  H  H138  1  0.50000000  0.28923569  0.01067496  1
  H  H139  1  0.50000000  0.34872908  0.00966955  1
  H  H140  1  0.50000000  0.40902251  0.00893410  1
  H  H141  1  0.50000000  0.46901962  0.00765646  1
  H  H142  1  0.50000000  0.52399312  0.00531986  1
  H  H143  1  0.50000000  0.67994947  0.29068358  1
  H  H144  1  0.50000000  0.71139806  0.00847186  1
  H  H145  1  0.50000000  0.67351253  0.04250229  1
  H  H146  1  0.50000000  0.67803343  0.38248592  1
  H  H147  1  0.50000000  0.53892879  0.05057371  1
  H  H148  1  0.50000000  0.54330546  0.36411188  1
  H  H149  1  0.50000000  0.54333128  0.13584267  1
  H  H150  1  0.50000000  0.53889786  0.44943315  1
  H  H151  1  0.50000000  0.67806059  0.11752907  1
  H  H152  1  0.50000000  0.67346908  0.45742119  1
  H  H153  1  0.50000000  0.28920735  0.48941721  1
  H  H154  1  0.50000000  0.34869733  0.49040038  1
  H  H155  1  0.50000000  0.40897574  0.49107042  1
  H  H156  1  0.50000000  0.46899639  0.49238641  1
  H  H157  1  0.50000000  0.52395330  0.49467206  1
  H  H158  1  0.50000000  0.67998944  0.20924662  1
  H  H159  1  0.50000000  0.71132956  0.49145512  1
  H  H160  1  0.50000000  0.54417275  0.20458660  1
  H  H161  1  0.50000000  0.54416743  0.29538261  1
