# generated using pymatgen
data_H17C54
_symmetry_space_group_name_H-M   'P 1'
_cell_length_a   20.00000000
_cell_length_b   37.22700000
_cell_length_c   26.16745590
_cell_angle_alpha   90.00000000
_cell_angle_beta   90.00000000
_cell_angle_gamma   90.00000000
_symmetry_Int_Tables_number   1
_chemical_formula_structural   H17C54
_chemical_formula_sum   'H34 C108'
_cell_volume   19482.71761559
_cell_formula_units_Z   2
loop_
 _symmetry_equiv_pos_site_id
 _symmetry_equiv_pos_as_xyz
  1  'x, y, z'
loop_
 _atom_site_type_symbol
 _atom_site_label
 _atom_site_symmetry_multiplicity
 _atom_site_fract_x
 _atom_site_fract_y
 _atom_site_fract_z
 _atom_site_occupancy
  C  C0  1  0.50000000  0.31837703  0.55613211  1
  C  C1  1  0.50000000  0.31822117  0.88744970  1
  C  C2  1  0.50000000  0.38510521  0.55836176  1
  C  C3  1  0.50000000  0.38492933  0.88628225  1
  C  C4  1  0.50000000  0.45102614  0.55939483  1
  C  C5  1  0.50000000  0.45116475  0.88580738  1
  C  C6  1  0.50000000  0.51705956  0.55807707  1
  C  C7  1  0.50000000  0.51758515  0.88700405  1
  C  C8  1  0.50000000  0.57588771  0.22218525  1
  C  C9  1  0.50000000  0.58476296  0.55607132  1
  C  C10  1  0.50000000  0.58437512  0.88823421  1
  C  C11  1  0.50000000  0.64190216  0.22401743  1
  C  C12  1  0.50000000  0.65153027  0.55699582  1
  C  C13  1  0.50000000  0.65060823  0.88775523  1
  C  C14  1  0.50000000  0.71798552  0.56308603  1
  C  C15  1  0.50000000  0.71684440  0.88412906  1
  C  C16  1  0.50000000  0.31824936  0.61248783  1
  C  C17  1  0.50000000  0.31837081  0.94379745  1
  C  C18  1  0.50000000  0.38493283  0.61367508  1
  C  C19  1  0.50000000  0.38511094  0.94158591  1
  C  C20  1  0.50000000  0.45115380  0.61422005  1
  C  C21  1  0.50000000  0.45105153  0.94062772  1
  C  C22  1  0.50000000  0.51754967  0.61304473  1
  C  C23  1  0.50000000  0.51710770  0.94198086  1
  C  C24  1  0.50000000  0.57585123  0.27793698  1
  C  C25  1  0.50000000  0.58433144  0.61179890  1
  C  C26  1  0.50000000  0.58484748  0.94398687  1
  C  C27  1  0.50000000  0.64186091  0.27621222  1
  C  C28  1  0.50000000  0.65056530  0.61214702  1
  C  C29  1  0.50000000  0.65158858  0.94290669  1
  C  C30  1  0.50000000  0.71682222  0.61567392  1
  C  C31  1  0.50000000  0.71802771  0.93671480  1
  C  C32  1  0.50000000  0.28614051  0.64052089  1
  C  C33  1  0.50000000  0.28746699  0.97326266  1
  C  C34  1  0.50000000  0.35133574  0.64017585  1
  C  C35  1  0.50000000  0.35244308  0.96834933  1
  C  C36  1  0.50000000  0.41773810  0.64100307  1
  C  C37  1  0.50000000  0.41836034  0.96729080  1
  C  C38  1  0.50000000  0.48445447  0.64075630  1
  C  C39  1  0.50000000  0.48421980  0.96692431  1
  C  C40  1  0.50000000  0.54427058  0.30888425  1
  C  C41  1  0.50000000  0.55101957  0.63974757  1
  C  C42  1  0.50000000  0.55101055  0.97058275  1
  C  C43  1  0.50000000  0.60922045  0.30450107  1
  C  C44  1  0.50000000  0.61704717  0.63967017  1
  C  C45  1  0.50000000  0.61774570  0.97260464  1
  C  C46  1  0.50000000  0.68345034  0.64054081  1
  C  C47  1  0.50000000  0.68633620  0.96454316  1
  C  C48  1  0.50000000  0.28599519  0.69358517  1
  C  C49  1  0.50000000  0.35125749  0.69504453  1
  C  C50  1  0.50000000  0.41773590  0.69581032  1
  C  C51  1  0.50000000  0.48449105  0.69563825  1
  C  C52  1  0.50000000  0.55033705  0.02381502  1
  C  C53  1  0.50000000  0.54547235  0.36184932  1
  C  C54  1  0.50000000  0.55087851  0.69469802  1
  C  C55  1  0.50000000  0.61566393  0.02845909  1
  C  C56  1  0.50000000  0.61012764  0.35951500  1
  C  C57  1  0.50000000  0.61676005  0.69471916  1
  C  C58  1  0.50000000  0.68284964  0.69578448  1
  C  C59  1  0.50000000  0.31803002  0.72214661  1
  C  C60  1  0.50000000  0.38457809  0.72262608  1
  C  C61  1  0.50000000  0.45113593  0.72276098  1
  C  C62  1  0.50000000  0.51763892  0.72256655  1
  C  C63  1  0.50000000  0.58134279  0.05422909  1
  C  C64  1  0.50000000  0.57848778  0.38967552  1
  C  C65  1  0.50000000  0.58389191  0.72230728  1
  C  C66  1  0.50000000  0.64569901  0.06245958  1
  C  C67  1  0.50000000  0.64329343  0.38565223  1
  C  C68  1  0.50000000  0.64982300  0.72258032  1
  C  C69  1  0.50000000  0.71512244  0.72368880  1
  C  C70  1  0.50000000  0.31802681  0.77780245  1
  C  C71  1  0.50000000  0.38457665  0.77736333  1
  C  C72  1  0.50000000  0.45114027  0.77726530  1
  C  C73  1  0.50000000  0.51764662  0.77749042  1
  C  C74  1  0.50000000  0.57855941  0.11042287  1
  C  C75  1  0.50000000  0.58123713  0.44584568  1
  C  C76  1  0.50000000  0.58389932  0.77766093  1
  C  C77  1  0.50000000  0.64335420  0.11448673  1
  C  C78  1  0.50000000  0.64558270  0.43768125  1
  C  C79  1  0.50000000  0.64982334  0.77731543  1
  C  C80  1  0.50000000  0.71513318  0.77616138  1
  C  C81  1  0.50000000  0.28598109  0.80634872  1
  C  C82  1  0.50000000  0.35124915  0.80491828  1
  C  C83  1  0.50000000  0.41774026  0.80419532  1
  C  C84  1  0.50000000  0.48449401  0.80441927  1
  C  C85  1  0.50000000  0.54553071  0.13823431  1
  C  C86  1  0.50000000  0.55024007  0.47625866  1
  C  C87  1  0.50000000  0.55089845  0.80533044  1
  C  C88  1  0.50000000  0.61018645  0.14063165  1
  C  C89  1  0.50000000  0.61554268  0.47160528  1
  C  C90  1  0.50000000  0.61677150  0.80522602  1
  C  C91  1  0.50000000  0.68286956  0.80406726  1
  C  C92  1  0.50000000  0.28742191  0.52676514  1
  C  C93  1  0.50000000  0.28611156  0.85941641  1
  C  C94  1  0.50000000  0.35244829  0.53157509  1
  C  C95  1  0.50000000  0.35132126  0.85977851  1
  C  C96  1  0.50000000  0.41835860  0.53267585  1
  C  C97  1  0.50000000  0.41774334  0.85899912  1
  C  C98  1  0.50000000  0.48418172  0.53310677  1
  C  C99  1  0.50000000  0.48447227  0.85930011  1
  C  C100  1  0.50000000  0.54432666  0.19118937  1
  C  C101  1  0.50000000  0.55094567  0.52946762  1
  C  C102  1  0.50000000  0.55105723  0.86029980  1
  C  C103  1  0.50000000  0.60927751  0.19565862  1
  C  C104  1  0.50000000  0.61765082  0.52740716  1
  C  C105  1  0.50000000  0.61708058  0.86027942  1
  C  C106  1  0.50000000  0.68626090  0.53534535  1
  C  C107  1  0.50000000  0.68347321  0.85929954  1
  H  H108  1  0.50000000  0.74366428  0.54269160  1
  H  H109  1  0.50000000  0.74199694  0.86282973  1
  H  H110  1  0.50000000  0.74197555  0.63698778  1
  H  H111  1  0.50000000  0.74375565  0.95693905  1
  H  H112  1  0.50000000  0.26040402  0.62036528  1
  H  H113  1  0.50000000  0.26037806  0.95713380  1
  H  H114  1  0.50000000  0.26007491  0.71317818  1
  H  H115  1  0.50000000  0.74101607  0.70427606  1
  H  H116  1  0.50000000  0.74105923  0.79548000  1
  H  H117  1  0.50000000  0.26008328  0.78669420  1
  H  H118  1  0.50000000  0.26036779  0.54303201  1
  H  H119  1  0.50000000  0.26036551  0.87957373  1
  H  H120  1  0.50000000  0.66785454  0.20459081  1
  H  H121  1  0.50000000  0.66776248  0.29574525  1
  H  H122  1  0.50000000  0.28951148  0.01505557  1
  H  H123  1  0.50000000  0.35311965  0.01025342  1
  H  H124  1  0.50000000  0.41866827  0.00922427  1
  H  H125  1  0.50000000  0.48261591  0.00865370  1
  H  H126  1  0.50000000  0.51785932  0.29045378  1
  H  H127  1  0.50000000  0.69074206  0.00497961  1
  H  H128  1  0.50000000  0.52443786  0.04316513  1
  H  H129  1  0.50000000  0.51983944  0.38229201  1
  H  H130  1  0.50000000  0.67306489  0.04971953  1
  H  H131  1  0.50000000  0.66867514  0.36479240  1
  H  H132  1  0.50000000  0.66870416  0.13543176  1
  H  H133  1  0.50000000  0.67292408  0.45046786  1
  H  H134  1  0.50000000  0.51988373  0.11782781  1
  H  H135  1  0.50000000  0.52434746  0.45686497  1
  H  H136  1  0.50000000  0.28934876  0.48495980  1
  H  H137  1  0.50000000  0.35316903  0.48966968  1
  H  H138  1  0.50000000  0.41873700  0.49072924  1
  H  H139  1  0.50000000  0.48260461  0.49136885  1
  H  H140  1  0.50000000  0.51790629  0.20957666  1
  H  H141  1  0.50000000  0.69072024  0.49493841  1
