# generated using pymatgen
data_H2C7
_symmetry_space_group_name_H-M   'P 1'
_cell_length_a   10.00000000
_cell_length_b   41.10890000
_cell_length_c   26.18794870
_cell_angle_alpha   90.00000000
_cell_angle_beta   90.00000000
_cell_angle_gamma   90.00000000
_symmetry_Int_Tables_number   1
_chemical_formula_structural   H2C7
_chemical_formula_sum   'H36 C126'
_cell_volume   10765.57764289
_cell_formula_units_Z   18
loop_
 _symmetry_equiv_pos_site_id
 _symmetry_equiv_pos_as_xyz
  1  'x, y, z'
loop_
 _atom_site_type_symbol
 _atom_site_label
 _atom_site_symmetry_multiplicity
 _atom_site_fract_x
 _atom_site_fract_y
 _atom_site_fract_z
 _atom_site_occupancy
  C  C0  1  0.50000000  0.29027411  0.63973140  1
  C  C1  1  0.50000000  0.29110193  0.96870529  1
  C  C2  1  0.50000000  0.35068878  0.64101894  1
  C  C3  1  0.50000000  0.35110609  0.96728757  1
  C  C4  1  0.50000000  0.41104571  0.64091237  1
  C  C5  1  0.50000000  0.41064801  0.96668110  1
  C  C6  1  0.50000000  0.46413133  0.30909037  1
  C  C7  1  0.50000000  0.47137073  0.63979634  1
  C  C8  1  0.50000000  0.47101157  0.97033853  1
  C  C9  1  0.50000000  0.52286265  0.30438615  1
  C  C10  1  0.50000000  0.53122176  0.63982059  1
  C  C11  1  0.50000000  0.53117565  0.97271011  1
  C  C12  1  0.50000000  0.59121454  0.64082367  1
  C  C13  1  0.50000000  0.59245734  0.96503293  1
  C  C14  1  0.50000000  0.65191214  0.64175493  1
  C  C15  1  0.50000000  0.65141650  0.96612276  1
  C  C16  1  0.50000000  0.71227041  0.63991241  1
  C  C17  1  0.50000000  0.71133599  0.96835021  1
  C  C18  1  0.50000000  0.29036820  0.69535612  1
  C  C19  1  0.50000000  0.35077045  0.69569017  1
  C  C20  1  0.50000000  0.41111768  0.69562852  1
  C  C21  1  0.50000000  0.47028696  0.02353521  1
  C  C22  1  0.50000000  0.46533674  0.36206056  1
  C  C23  1  0.50000000  0.47132914  0.69492799  1
  C  C24  1  0.50000000  0.52935457  0.02858624  1
  C  C25  1  0.50000000  0.52386568  0.35933481  1
  C  C26  1  0.50000000  0.53122008  0.69496542  1
  C  C27  1  0.50000000  0.59121356  0.69551560  1
  C  C28  1  0.50000000  0.65171321  0.69614797  1
  C  C29  1  0.50000000  0.71214286  0.69541724  1
  C  C30  1  0.50000000  0.26128792  0.72357384  1
  C  C31  1  0.50000000  0.32046293  0.72263994  1
  C  C32  1  0.50000000  0.38085152  0.72260683  1
  C  C33  1  0.50000000  0.44130519  0.72255645  1
  C  C34  1  0.50000000  0.49820541  0.05418199  1
  C  C35  1  0.50000000  0.49533908  0.38971419  1
  C  C36  1  0.50000000  0.50128073  0.72247490  1
  C  C37  1  0.50000000  0.55641675  0.06288894  1
  C  C38  1  0.50000000  0.55400394  0.38520603  1
  C  C39  1  0.50000000  0.56115715  0.72255400  1
  C  C40  1  0.50000000  0.62148971  0.72262303  1
  C  C41  1  0.50000000  0.68206689  0.72273163  1
  C  C42  1  0.50000000  0.74123433  0.72355195  1
  C  C43  1  0.50000000  0.26129104  0.77642196  1
  C  C44  1  0.50000000  0.32046227  0.77735187  1
  C  C45  1  0.50000000  0.38085709  0.77739425  1
  C  C46  1  0.50000000  0.44130312  0.77745384  1
  C  C47  1  0.50000000  0.49534973  0.11033409  1
  C  C48  1  0.50000000  0.49818860  0.44586303  1
  C  C49  1  0.50000000  0.50128656  0.77755410  1
  C  C50  1  0.50000000  0.55401377  0.11485324  1
  C  C51  1  0.50000000  0.55640700  0.43717197  1
  C  C52  1  0.50000000  0.56116677  0.77746161  1
  C  C53  1  0.50000000  0.62148852  0.77735374  1
  C  C54  1  0.50000000  0.68207455  0.77722394  1
  C  C55  1  0.50000000  0.74123481  0.77634608  1
  C  C56  1  0.50000000  0.29037095  0.80464037  1
  C  C57  1  0.50000000  0.35077047  0.80430412  1
  C  C58  1  0.50000000  0.41112049  0.80438930  1
  C  C59  1  0.50000000  0.46534451  0.13797757  1
  C  C60  1  0.50000000  0.47026568  0.47648894  1
  C  C61  1  0.50000000  0.47133213  0.80510363  1
  C  C62  1  0.50000000  0.52387344  0.14071732  1
  C  C63  1  0.50000000  0.52933712  0.47146519  1
  C  C64  1  0.50000000  0.53122735  0.80507377  1
  C  C65  1  0.50000000  0.59122736  0.80448289  1
  C  C66  1  0.50000000  0.65172077  0.80382755  1
  C  C67  1  0.50000000  0.71215799  0.80450477  1
  C  C68  1  0.50000000  0.29111415  0.53127452  1
  C  C69  1  0.50000000  0.29027124  0.86025594  1
  C  C70  1  0.50000000  0.35111550  0.53273032  1
  C  C71  1  0.50000000  0.35068861  0.85897620  1
  C  C72  1  0.50000000  0.41065625  0.53333566  1
  C  C73  1  0.50000000  0.41105123  0.85910175  1
  C  C74  1  0.50000000  0.46412772  0.19094698  1
  C  C75  1  0.50000000  0.47099719  0.52968842  1
  C  C76  1  0.50000000  0.47138254  0.86023467  1
  C  C77  1  0.50000000  0.52286292  0.19566249  1
  C  C78  1  0.50000000  0.53115487  0.52733259  1
  C  C79  1  0.50000000  0.53125830  0.86021528  1
  C  C80  1  0.50000000  0.59242803  0.53500380  1
  C  C81  1  0.50000000  0.59123582  0.85916757  1
  C  C82  1  0.50000000  0.65138180  0.53384130  1
  C  C83  1  0.50000000  0.65191020  0.85822386  1
  C  C84  1  0.50000000  0.71130784  0.53158626  1
  C  C85  1  0.50000000  0.71229761  0.86000725  1
  C  C86  1  0.50000000  0.26184948  0.55746231  1
  C  C87  1  0.50000000  0.26136848  0.88891652  1
  C  C88  1  0.50000000  0.32102872  0.55835059  1
  C  C89  1  0.50000000  0.32069762  0.88663285  1
  C  C90  1  0.50000000  0.38061498  0.55948353  1
  C  C91  1  0.50000000  0.38075308  0.88566918  1
  C  C92  1  0.50000000  0.44040067  0.55829832  1
  C  C93  1  0.50000000  0.44100700  0.88678842  1
  C  C94  1  0.50000000  0.49262045  0.22211994  1
  C  C95  1  0.50000000  0.50158087  0.55622744  1
  C  C96  1  0.50000000  0.50141230  0.88812526  1
  C  C97  1  0.50000000  0.55235958  0.22396417  1
  C  C98  1  0.50000000  0.56170739  0.55701221  1
  C  C99  1  0.50000000  0.56129300  0.88745141  1
  C  C100  1  0.50000000  0.62214346  0.56124581  1
  C  C101  1  0.50000000  0.62184982  0.88452758  1
  C  C102  1  0.50000000  0.68151318  0.55896435  1
  C  C103  1  0.50000000  0.68185675  0.88605928  1
  C  C104  1  0.50000000  0.74063661  0.55757194  1
  C  C105  1  0.50000000  0.74114856  0.88877134  1
  C  C106  1  0.50000000  0.26138076  0.61105628  1
  C  C107  1  0.50000000  0.26184343  0.94250063  1
  C  C108  1  0.50000000  0.32069934  0.61336221  1
  C  C109  1  0.50000000  0.32102300  0.94164355  1
  C  C110  1  0.50000000  0.38075219  0.61433453  1
  C  C111  1  0.50000000  0.38060255  0.94052563  1
  C  C112  1  0.50000000  0.44099477  0.61323970  1
  C  C113  1  0.50000000  0.44040223  0.94173987  1
  C  C114  1  0.50000000  0.49262486  0.27791964  1
  C  C115  1  0.50000000  0.50138803  0.61190397  1
  C  C116  1  0.50000000  0.50160068  0.94380982  1
  C  C117  1  0.50000000  0.55236298  0.27608389  1
  C  C118  1  0.50000000  0.56124108  0.61256947  1
  C  C119  1  0.50000000  0.56174602  0.94302650  1
  C  C120  1  0.50000000  0.62185053  0.61546885  1
  C  C121  1  0.50000000  0.62215994  0.93874859  1
  C  C122  1  0.50000000  0.68182919  0.61388605  1
  C  C123  1  0.50000000  0.68153990  0.94098553  1
  C  C124  1  0.50000000  0.74111967  0.61114510  1
  C  C125  1  0.50000000  0.74065496  0.94234766  1
  H  H126  1  0.50000000  0.23785715  0.70385987  1
  H  H127  1  0.50000000  0.76460194  0.70370637  1
  H  H128  1  0.50000000  0.23785162  0.79611182  1
  H  H129  1  0.50000000  0.76461340  0.79619233  1
  H  H130  1  0.50000000  0.23885291  0.53629218  1
  H  H131  1  0.50000000  0.23773263  0.86974954  1
  H  H132  1  0.50000000  0.76362897  0.53639593  1
  H  H133  1  0.50000000  0.76473428  0.86955749  1
  H  H134  1  0.50000000  0.23776159  0.63026492  1
  H  H135  1  0.50000000  0.23883294  0.96362131  1
  H  H136  1  0.50000000  0.76468611  0.63041080  1
  H  H137  1  0.50000000  0.76365224  0.96348276  1
  H  H138  1  0.50000000  0.29146611  0.01054381  1
  H  H139  1  0.50000000  0.35143833  0.00919243  1
  H  H140  1  0.50000000  0.40926246  0.00835623  1
  H  H141  1  0.50000000  0.44020081  0.29074524  1
  H  H142  1  0.50000000  0.59629734  0.00538878  1
  H  H143  1  0.50000000  0.65080531  0.00798200  1
  H  H144  1  0.50000000  0.71067893  0.01018301  1
  H  H145  1  0.50000000  0.44683657  0.04282807  1
  H  H146  1  0.50000000  0.44214117  0.38262705  1
  H  H147  1  0.50000000  0.58132795  0.05068641  1
  H  H148  1  0.50000000  0.57689400  0.36410131  1
  H  H149  1  0.50000000  0.57690983  0.13593835  1
  H  H150  1  0.50000000  0.58132627  0.44934581  1
  H  H151  1  0.50000000  0.44214154  0.11743039  1
  H  H152  1  0.50000000  0.44682373  0.45716055  1
  H  H153  1  0.50000000  0.29149111  0.48943345  1
  H  H154  1  0.50000000  0.35144648  0.49082849  1
  H  H155  1  0.50000000  0.40927914  0.49166055  1
  H  H156  1  0.50000000  0.44018387  0.20925578  1
  H  H157  1  0.50000000  0.59624957  0.49464565  1
  H  H158  1  0.50000000  0.65076506  0.49198033  1
  H  H159  1  0.50000000  0.71064302  0.48976142  1
  H  H160  1  0.50000000  0.57576404  0.20439165  1
  H  H161  1  0.50000000  0.57577373  0.29564120  1
