# generated using pymatgen
data_H17C57
_symmetry_space_group_name_H-M   'P 1'
_cell_length_a   20.00000000
_cell_length_b   40.19450000
_cell_length_c   26.19419840
_cell_angle_alpha   90.00000000
_cell_angle_beta   90.00000000
_cell_angle_gamma   90.00000000
_symmetry_Int_Tables_number   1
_chemical_formula_structural   H17C57
_chemical_formula_sum   'H34 C114'
_cell_volume   21057.25415099
_cell_formula_units_Z   2
loop_
 _symmetry_equiv_pos_site_id
 _symmetry_equiv_pos_as_xyz
  1  'x, y, z'
loop_
 _atom_site_type_symbol
 _atom_site_label
 _atom_site_symmetry_multiplicity
 _atom_site_fract_x
 _atom_site_fract_y
 _atom_site_fract_z
 _atom_site_occupancy
  C  C0  1  0.50000000  0.28672266  0.61151065  1
  C  C1  1  0.50000000  0.28683410  0.77633371  1
  C  C2  1  0.50000000  0.28704406  0.94189358  1
  C  C3  1  0.50000000  0.31633324  0.64003210  1
  C  C4  1  0.50000000  0.31659284  0.80437169  1
  C  C5  1  0.50000000  0.31701855  0.96801142  1
  C  C6  1  0.50000000  0.28703531  0.55800100  1
  C  C7  1  0.50000000  0.28685088  0.72353354  1
  C  C8  1  0.50000000  0.28671295  0.88838644  1
  C  C9  1  0.50000000  0.34739035  0.61369427  1
  C  C10  1  0.50000000  0.34747527  0.77734422  1
  C  C11  1  0.50000000  0.34741367  0.94075017  1
  C  C12  1  0.50000000  0.37838040  0.64052668  1
  C  C13  1  0.50000000  0.37846925  0.80449525  1
  C  C14  1  0.50000000  0.37807147  0.96679046  1
  C  C15  1  0.50000000  0.31700643  0.53189610  1
  C  C16  1  0.50000000  0.31660520  0.69549922  1
  C  C17  1  0.50000000  0.31631881  0.85983767  1
  C  C18  1  0.50000000  0.34740206  0.55913012  1
  C  C19  1  0.50000000  0.34746592  0.72256848  1
  C  C20  1  0.50000000  0.34737885  0.88619024  1
  C  C21  1  0.50000000  0.40894939  0.61297943  1
  C  C22  1  0.50000000  0.40915438  0.77752170  1
  C  C23  1  0.50000000  0.40849906  0.94175645  1
  C  C24  1  0.50000000  0.43421434  0.13776802  1
  C  C25  1  0.50000000  0.44009790  0.63971765  1
  C  C26  1  0.50000000  0.43283414  0.30903005  1
  C  C27  1  0.50000000  0.43999379  0.80511750  1
  C  C28  1  0.50000000  0.43904953  0.47646304  1
  C  C29  1  0.50000000  0.43983947  0.97018671  1
  C  C30  1  0.50000000  0.37806450  0.53308695  1
  C  C31  1  0.50000000  0.37846071  0.69541553  1
  C  C32  1  0.50000000  0.37838035  0.85937529  1
  C  C33  1  0.50000000  0.40847745  0.55810885  1
  C  C34  1  0.50000000  0.40914163  0.72239109  1
  C  C35  1  0.50000000  0.40896168  0.88689135  1
  C  C36  1  0.50000000  0.46486222  0.11011876  1
  C  C37  1  0.50000000  0.47077724  0.61195364  1
  C  C38  1  0.50000000  0.46197684  0.27781041  1
  C  C39  1  0.50000000  0.47059727  0.77753282  1
  C  C40  1  0.50000000  0.46760321  0.44584435  1
  C  C41  1  0.50000000  0.47107427  0.94361395  1
  C  C42  1  0.50000000  0.49399461  0.14056493  1
  C  C43  1  0.50000000  0.50129540  0.63989225  1
  C  C44  1  0.50000000  0.49289097  0.30430950  1
  C  C45  1  0.50000000  0.50126481  0.80491496  1
  C  C46  1  0.50000000  0.49942882  0.47147147  1
  C  C47  1  0.50000000  0.50130688  0.97249115  1
  C  C48  1  0.50000000  0.43909981  0.02334758  1
  C  C49  1  0.50000000  0.43979575  0.52964426  1
  C  C50  1  0.50000000  0.43288027  0.19072658  1
  C  C51  1  0.50000000  0.43995784  0.69474768  1
  C  C52  1  0.50000000  0.43415740  0.36198110  1
  C  C53  1  0.50000000  0.44012108  0.86016182  1
  C  C54  1  0.50000000  0.46765689  0.05396871  1
  C  C55  1  0.50000000  0.47102704  0.55623189  1
  C  C56  1  0.50000000  0.46199769  0.22198171  1
  C  C57  1  0.50000000  0.47056555  0.72240308  1
  C  C58  1  0.50000000  0.46478027  0.38969902  1
  C  C59  1  0.50000000  0.47081475  0.88791387  1
  C  C60  1  0.50000000  0.52479632  0.11465110  1
  C  C61  1  0.50000000  0.53200263  0.61264522  1
  C  C62  1  0.50000000  0.52304835  0.27597931  1
  C  C63  1  0.50000000  0.53195100  0.77734638  1
  C  C64  1  0.50000000  0.52709935  0.43717063  1
  C  C65  1  0.50000000  0.53252925  0.94278873  1
  C  C66  1  0.50000000  0.56266172  0.64084068  1
  C  C67  1  0.50000000  0.56272018  0.80433430  1
  C  C68  1  0.50000000  0.56391238  0.96480521  1
  C  C69  1  0.50000000  0.49949166  0.02836341  1
  C  C70  1  0.50000000  0.50124189  0.52735400  1
  C  C71  1  0.50000000  0.49292985  0.19552543  1
  C  C72  1  0.50000000  0.50122327  0.69497212  1
  C  C73  1  0.50000000  0.49392612  0.35927294  1
  C  C74  1  0.50000000  0.50134713  0.86000390  1
  C  C75  1  0.50000000  0.52716512  0.06267611  1
  C  C76  1  0.50000000  0.53245060  0.55709034  1
  C  C77  1  0.50000000  0.52308095  0.22388170  1
  C  C78  1  0.50000000  0.53191928  0.72252210  1
  C  C79  1  0.50000000  0.52471665  0.38521336  1
  C  C80  1  0.50000000  0.53206764  0.88723957  1
  C  C81  1  0.50000000  0.59398584  0.61542151  1
  C  C82  1  0.50000000  0.59373559  0.77727109  1
  C  C83  1  0.50000000  0.59431872  0.93863754  1
  C  C84  1  0.50000000  0.62474784  0.64164194  1
  C  C85  1  0.50000000  0.62462294  0.80378683  1
  C  C86  1  0.50000000  0.62418168  0.96612013  1
  C  C87  1  0.50000000  0.56382840  0.53506195  1
  C  C88  1  0.50000000  0.56268298  0.69553085  1
  C  C89  1  0.50000000  0.56271818  0.85902496  1
  C  C90  1  0.50000000  0.59424890  0.56120188  1
  C  C91  1  0.50000000  0.59370862  0.72258569  1
  C  C92  1  0.50000000  0.59405541  0.88442260  1
  C  C93  1  0.50000000  0.65530951  0.61375750  1
  C  C94  1  0.50000000  0.65565741  0.77714319  1
  C  C95  1  0.50000000  0.65499913  0.94099637  1
  C  C96  1  0.50000000  0.68646264  0.63982426  1
  C  C97  1  0.50000000  0.68642880  0.80442372  1
  C  C98  1  0.50000000  0.68544566  0.96840077  1
  C  C99  1  0.50000000  0.62410648  0.53370180  1
  C  C100  1  0.50000000  0.62458372  0.69603571  1
  C  C101  1  0.50000000  0.62481109  0.85817843  1
  C  C102  1  0.50000000  0.65493693  0.55881561  1
  C  C103  1  0.50000000  0.65562425  0.72266036  1
  C  C104  1  0.50000000  0.65538706  0.88604204  1
  C  C105  1  0.50000000  0.71593239  0.61098910  1
  C  C106  1  0.50000000  0.71616664  0.77625759  1
  C  C107  1  0.50000000  0.71543077  0.94241202  1
  C  C108  1  0.50000000  0.68538068  0.53140984  1
  C  C109  1  0.50000000  0.68637616  0.69535416  1
  C  C110  1  0.50000000  0.68654742  0.85996002  1
  C  C111  1  0.50000000  0.71537159  0.55738953  1
  C  C112  1  0.50000000  0.71613515  0.72344935  1
  C  C113  1  0.50000000  0.71602099  0.88881403  1
  H  H114  1  0.50000000  0.26262198  0.63085404  1
  H  H115  1  0.50000000  0.26285609  0.79598117  1
  H  H116  1  0.50000000  0.26349250  0.96293961  1
  H  H117  1  0.50000000  0.26349747  0.53692462  1
  H  H118  1  0.50000000  0.26292403  0.70378384  1
  H  H119  1  0.50000000  0.26258071  0.86911593  1
  H  H120  1  0.50000000  0.74009510  0.63012930  1
  H  H121  1  0.50000000  0.74013408  0.79591226  1
  H  H122  1  0.50000000  0.73887990  0.96373517  1
  H  H123  1  0.50000000  0.73882690  0.53607268  1
  H  H124  1  0.50000000  0.74006310  0.70367290  1
  H  H125  1  0.50000000  0.74022974  0.86978890  1
  H  H126  1  0.50000000  0.68460669  0.48958887  1
  H  H127  1  0.50000000  0.31757120  0.49006471  1
  H  H128  1  0.50000000  0.68469037  0.01023194  1
  H  H129  1  0.50000000  0.31760830  0.00984413  1
  H  H130  1  0.50000000  0.62343292  0.00800329  1
  H  H131  1  0.50000000  0.62336201  0.49182404  1
  H  H132  1  0.50000000  0.37648907  0.00842897  1
  H  H133  1  0.50000000  0.37653286  0.49145850  1
  H  H134  1  0.50000000  0.41056079  0.11709792  1
  H  H135  1  0.50000000  0.40827637  0.29088300  1
  H  H136  1  0.50000000  0.41501103  0.45734650  1
  H  H137  1  0.50000000  0.41500441  0.04231222  1
  H  H138  1  0.50000000  0.40834107  0.20891818  1
  H  H139  1  0.50000000  0.41045453  0.38250877  1
  H  H140  1  0.50000000  0.54822945  0.13569719  1
  H  H141  1  0.50000000  0.54698939  0.29554529  1
  H  H142  1  0.50000000  0.55255209  0.44941926  1
  H  H143  1  0.50000000  0.56779377  0.00516320  1
  H  H144  1  0.50000000  0.55261251  0.05042111  1
  H  H145  1  0.50000000  0.54707516  0.20445754  1
  H  H146  1  0.50000000  0.54815189  0.36418592  1
  H  H147  1  0.50000000  0.56763707  0.49470263  1
