# generated using pymatgen
data_H17C57
_symmetry_space_group_name_H-M   'P 1'
_cell_length_a   20.00000000
_cell_length_b   40.19450000
_cell_length_c   26.19405805
_cell_angle_alpha   90.00000000
_cell_angle_beta   90.00000000
_cell_angle_gamma   90.00000000
_symmetry_Int_Tables_number   1
_chemical_formula_structural   H17C57
_chemical_formula_sum   'H34 C114'
_cell_volume   21057.14132699
_cell_formula_units_Z   2
loop_
 _symmetry_equiv_pos_site_id
 _symmetry_equiv_pos_as_xyz
  1  'x, y, z'
loop_
 _atom_site_type_symbol
 _atom_site_label
 _atom_site_symmetry_multiplicity
 _atom_site_fract_x
 _atom_site_fract_y
 _atom_site_fract_z
 _atom_site_occupancy
  C  C0  1  0.50000000  0.28667366  0.61319374  1
  C  C1  1  0.50000000  0.28752797  0.77627166  1
  C  C2  1  0.50000000  0.28631017  0.93976361  1
  C  C3  1  0.50000000  0.31692845  0.64019139  1
  C  C4  1  0.50000000  0.31735573  0.80426188  1
  C  C5  1  0.50000000  0.31607288  0.96687114  1
  C  C6  1  0.50000000  0.28620786  0.56016783  1
  C  C7  1  0.50000000  0.28752752  0.72365591  1
  C  C8  1  0.50000000  0.28671126  0.88673268  1
  C  C9  1  0.50000000  0.34753966  0.61264755  1
  C  C10  1  0.50000000  0.34811192  0.77739228  1
  C  C11  1  0.50000000  0.34698537  0.94168056  1
  C  C12  1  0.50000000  0.37247038  0.13785143  1
  C  C13  1  0.50000000  0.37886949  0.63959101  1
  C  C14  1  0.50000000  0.37116448  0.30898063  1
  C  C15  1  0.50000000  0.37888628  0.80528721  1
  C  C16  1  0.50000000  0.37735641  0.47637667  1
  C  C17  1  0.50000000  0.37826070  0.97016958  1
  C  C18  1  0.50000000  0.31596108  0.53300056  1
  C  C19  1  0.50000000  0.31733316  0.69561060  1
  C  C20  1  0.50000000  0.31695160  0.85968592  1
  C  C21  1  0.50000000  0.34690097  0.55818611  1
  C  C22  1  0.50000000  0.34811625  0.72245256  1
  C  C23  1  0.50000000  0.34757165  0.88720649  1
  C  C24  1  0.50000000  0.40312489  0.11022312  1
  C  C25  1  0.50000000  0.40935569  0.61180154  1
  C  C26  1  0.50000000  0.40032554  0.27783014  1
  C  C27  1  0.50000000  0.40936296  0.77756339  1
  C  C28  1  0.50000000  0.40590241  0.44575956  1
  C  C29  1  0.50000000  0.40958721  0.94370017  1
  C  C30  1  0.50000000  0.43229063  0.14058802  1
  C  C31  1  0.50000000  0.44003246  0.63973671  1
  C  C32  1  0.50000000  0.43125474  0.30432264  1
  C  C33  1  0.50000000  0.44000015  0.80497965  1
  C  C34  1  0.50000000  0.43777915  0.47136971  1
  C  C35  1  0.50000000  0.43981831  0.97261389  1
  C  C36  1  0.50000000  0.37745114  0.02342970  1
  C  C37  1  0.50000000  0.37816309  0.52963235  1
  C  C38  1  0.50000000  0.37119210  0.19081445  1
  C  C39  1  0.50000000  0.37890339  0.69456665  1
  C  C40  1  0.50000000  0.37242876  0.36194239  1
  C  C41  1  0.50000000  0.37889392  0.86025738  1
  C  C42  1  0.50000000  0.40598368  0.05406278  1
  C  C43  1  0.50000000  0.40950830  0.55607250  1
  C  C44  1  0.50000000  0.40033483  0.22201579  1
  C  C45  1  0.50000000  0.40938519  0.72228396  1
  C  C46  1  0.50000000  0.40308207  0.38959067  1
  C  C47  1  0.50000000  0.40940907  0.88798121  1
  C  C48  1  0.50000000  0.46310136  0.11465906  1
  C  C49  1  0.50000000  0.47065435  0.61245392  1
  C  C50  1  0.50000000  0.46143249  0.27600285  1
  C  C51  1  0.50000000  0.47062374  0.77727373  1
  C  C52  1  0.50000000  0.46545675  0.43713007  1
  C  C53  1  0.50000000  0.47115107  0.94289837  1
  C  C54  1  0.50000000  0.50136289  0.64072251  1
  C  C55  1  0.50000000  0.50133656  0.80431539  1
  C  C56  1  0.50000000  0.50256921  0.96485064  1
  C  C57  1  0.50000000  0.43785811  0.02843629  1
  C  C58  1  0.50000000  0.43975216  0.52717769  1
  C  C59  1  0.50000000  0.43127242  0.19554175  1
  C  C60  1  0.50000000  0.44000236  0.69475980  1
  C  C61  1  0.50000000  0.43226756  0.35926157  1
  C  C62  1  0.50000000  0.44007750  0.86001210  1
  C  C63  1  0.50000000  0.46553484  0.06270443  1
  C  C64  1  0.50000000  0.47109387  0.55686672  1
  C  C65  1  0.50000000  0.46144790  0.22389179  1
  C  C66  1  0.50000000  0.47062715  0.72246449  1
  C  C67  1  0.50000000  0.46307658  0.38518061  1
  C  C68  1  0.50000000  0.47069496  0.88731625  1
  C  C69  1  0.50000000  0.53255296  0.61541520  1
  C  C70  1  0.50000000  0.53220562  0.77716983  1
  C  C71  1  0.50000000  0.53298129  0.93856933  1
  C  C72  1  0.50000000  0.56332846  0.64185434  1
  C  C73  1  0.50000000  0.56321823  0.80367304  1
  C  C74  1  0.50000000  0.56291976  0.96579924  1
  C  C75  1  0.50000000  0.50251234  0.53491430  1
  C  C76  1  0.50000000  0.50133627  0.69546040  1
  C  C77  1  0.50000000  0.50139841  0.85906091  1
  C  C78  1  0.50000000  0.53292248  0.56120514  1
  C  C79  1  0.50000000  0.53220362  0.72262445  1
  C  C80  1  0.50000000  0.53259862  0.88435896  1
  C  C81  1  0.50000000  0.59392916  0.61434502  1
  C  C82  1  0.50000000  0.59416132  0.77712828  1
  C  C83  1  0.50000000  0.59381492  0.94056517  1
  C  C84  1  0.50000000  0.62468280  0.64086708  1
  C  C85  1  0.50000000  0.62476267  0.80424220  1
  C  C86  1  0.50000000  0.62409088  0.96733635  1
  C  C87  1  0.50000000  0.56285060  0.53394271  1
  C  C88  1  0.50000000  0.56319906  0.69609902  1
  C  C89  1  0.50000000  0.56336851  0.85791401  1
  C  C90  1  0.50000000  0.59374784  0.55918424  1
  C  C91  1  0.50000000  0.59413714  0.72264157  1
  C  C92  1  0.50000000  0.59397423  0.88541457  1
  C  C93  1  0.50000000  0.65527693  0.61315214  1
  C  C94  1  0.50000000  0.65571313  0.77724128  1
  C  C95  1  0.50000000  0.65481036  0.94165055  1
  C  C96  1  0.50000000  0.68635248  0.63952976  1
  C  C97  1  0.50000000  0.68643501  0.80457228  1
  C  C98  1  0.50000000  0.68538111  0.96875264  1
  C  C99  1  0.50000000  0.62402836  0.53242806  1
  C  C100  1  0.50000000  0.62472470  0.69552598  1
  C  C101  1  0.50000000  0.62472983  0.85890104  1
  C  C102  1  0.50000000  0.65474800  0.55811840  1
  C  C103  1  0.50000000  0.65568081  0.72252707  1
  C  C104  1  0.50000000  0.65534244  0.88660487  1
  C  C105  1  0.50000000  0.71586105  0.61076808  1
  C  C106  1  0.50000000  0.71615761  0.77624940  1
  C  C107  1  0.50000000  0.71532497  0.94260332  1
  C  C108  1  0.50000000  0.68532172  0.53101837  1
  C  C109  1  0.50000000  0.68637880  0.69516277  1
  C  C110  1  0.50000000  0.68643481  0.86022528  1
  C  C111  1  0.50000000  0.71527086  0.55717540  1
  C  C112  1  0.50000000  0.71613142  0.72338755  1
  C  C113  1  0.50000000  0.71594691  0.88901123  1
  H  H114  1  0.50000000  0.26298330  0.63364429  1
  H  H115  1  0.50000000  0.26357301  0.79586458  1
  H  H116  1  0.50000000  0.26257188  0.96032818  1
  H  H117  1  0.50000000  0.26240622  0.53976199  1
  H  H118  1  0.50000000  0.26356162  0.70409733  1
  H  H119  1  0.50000000  0.26301111  0.86631819  1
  H  H120  1  0.50000000  0.74000177  0.62999487  1
  H  H121  1  0.50000000  0.74015528  0.79584137  1
  H  H122  1  0.50000000  0.73879248  0.96386828  1
  H  H123  1  0.50000000  0.73876031  0.53596097  1
  H  H124  1  0.50000000  0.74010047  0.70369940  1
  H  H125  1  0.50000000  0.74013707  0.86990081  1
  H  H126  1  0.50000000  0.68468487  0.48919810  1
  H  H127  1  0.50000000  0.31452504  0.49131645  1
  H  H128  1  0.50000000  0.68482143  0.01057168  1
  H  H129  1  0.50000000  0.31464309  0.00855280  1
  H  H130  1  0.50000000  0.34880971  0.11718149  1
  H  H131  1  0.50000000  0.34666222  0.29068314  1
  H  H132  1  0.50000000  0.35326132  0.45739126  1
  H  H133  1  0.50000000  0.35333891  0.04234698  1
  H  H134  1  0.50000000  0.34667582  0.20907517  1
  H  H135  1  0.50000000  0.34876137  0.38259825  1
  H  H136  1  0.50000000  0.62375227  0.00923151  1
  H  H137  1  0.50000000  0.62372073  0.49052908  1
  H  H138  1  0.50000000  0.56226470  0.00764163  1
  H  H139  1  0.50000000  0.56215689  0.49208214  1
  H  H140  1  0.50000000  0.48649697  0.13577647  1
  H  H141  1  0.50000000  0.48543246  0.29545647  1
  H  H142  1  0.50000000  0.49085068  0.44958144  1
  H  H143  1  0.50000000  0.50649880  0.00521000  1
  H  H144  1  0.50000000  0.49096052  0.05034783  1
  H  H145  1  0.50000000  0.48547117  0.20448769  1
  H  H146  1  0.50000000  0.48648526  0.36410605  1
  H  H147  1  0.50000000  0.50648009  0.49456410  1
