# generated using pymatgen
data_H2C7
_symmetry_space_group_name_H-M   'P 1'
_cell_length_a   10.00000000
_cell_length_b   41.10890000
_cell_length_c   25.87690734
_cell_angle_alpha   90.00000000
_cell_angle_beta   90.00000000
_cell_angle_gamma   90.00000000
_symmetry_Int_Tables_number   1
_chemical_formula_structural   H2C7
_chemical_formula_sum   'H36 C126'
_cell_volume   10637.71196134
_cell_formula_units_Z   18
loop_
 _symmetry_equiv_pos_site_id
 _symmetry_equiv_pos_as_xyz
  1  'x, y, z'
loop_
 _atom_site_type_symbol
 _atom_site_label
 _atom_site_symmetry_multiplicity
 _atom_site_fract_x
 _atom_site_fract_y
 _atom_site_fract_z
 _atom_site_occupancy
  C  C0  1  0.50000000  0.28997746  0.30546732  1
  C  C1  1  0.50000000  0.28996576  0.63887762  1
  C  C2  1  0.50000000  0.28949184  0.97171358  1
  C  C3  1  0.50000000  0.34935751  0.30725060  1
  C  C4  1  0.50000000  0.35020367  0.63917899  1
  C  C5  1  0.50000000  0.34958271  0.97211138  1
  C  C6  1  0.50000000  0.41022701  0.63956535  1
  C  C7  1  0.50000000  0.41023541  0.96926346  1
  C  C8  1  0.50000000  0.47045142  0.63984986  1
  C  C9  1  0.50000000  0.47011404  0.96943491  1
  C  C10  1  0.50000000  0.53047655  0.63973601  1
  C  C11  1  0.50000000  0.53016235  0.96984628  1
  C  C12  1  0.50000000  0.59048322  0.63964097  1
  C  C13  1  0.50000000  0.59009287  0.97005188  1
  C  C14  1  0.50000000  0.65055220  0.63927676  1
  C  C15  1  0.50000000  0.64984887  0.97055198  1
  C  C16  1  0.50000000  0.71098275  0.63793467  1
  C  C17  1  0.50000000  0.70968003  0.97228649  1
  C  C18  1  0.50000000  0.28934002  0.02744308  1
  C  C19  1  0.50000000  0.28983209  0.36138252  1
  C  C20  1  0.50000000  0.29001006  0.69477773  1
  C  C21  1  0.50000000  0.34860487  0.02572559  1
  C  C22  1  0.50000000  0.34915299  0.36036948  1
  C  C23  1  0.50000000  0.35016592  0.69437225  1
  C  C24  1  0.50000000  0.41019888  0.69492423  1
  C  C25  1  0.50000000  0.47041729  0.69514494  1
  C  C26  1  0.50000000  0.53054417  0.69503481  1
  C  C27  1  0.50000000  0.59063731  0.69490568  1
  C  C28  1  0.50000000  0.65072939  0.69478569  1
  C  C29  1  0.50000000  0.71105284  0.69442711  1
  C  C30  1  0.50000000  0.26000857  0.05671689  1
  C  C31  1  0.50000000  0.26022348  0.39011737  1
  C  C32  1  0.50000000  0.26073406  0.72340166  1
  C  C33  1  0.50000000  0.31945834  0.05463299  1
  C  C34  1  0.50000000  0.31966701  0.38922711  1
  C  C35  1  0.50000000  0.32004047  0.72224962  1
  C  C36  1  0.50000000  0.38019222  0.72226446  1
  C  C37  1  0.50000000  0.44034086  0.72240354  1
  C  C38  1  0.50000000  0.50047223  0.72244433  1
  C  C39  1  0.50000000  0.56059190  0.72236351  1
  C  C40  1  0.50000000  0.62082786  0.72227765  1
  C  C41  1  0.50000000  0.68103168  0.72224550  1
  C  C42  1  0.50000000  0.74010833  0.72321555  1
  C  C43  1  0.50000000  0.26025126  0.10982464  1
  C  C44  1  0.50000000  0.25999126  0.44320557  1
  C  C45  1  0.50000000  0.26075284  0.77668985  1
  C  C46  1  0.50000000  0.31972166  0.11071577  1
  C  C47  1  0.50000000  0.31942853  0.44531943  1
  C  C48  1  0.50000000  0.32004651  0.77772474  1
  C  C49  1  0.50000000  0.38019724  0.77769282  1
  C  C50  1  0.50000000  0.44034151  0.77759407  1
  C  C51  1  0.50000000  0.50047619  0.77758406  1
  C  C52  1  0.50000000  0.56059444  0.77770257  1
  C  C53  1  0.50000000  0.62082782  0.77780687  1
  C  C54  1  0.50000000  0.68103203  0.77784464  1
  C  C55  1  0.50000000  0.74010157  0.77684587  1
  C  C56  1  0.50000000  0.28986547  0.13853513  1
  C  C57  1  0.50000000  0.28931283  0.47250974  1
  C  C58  1  0.50000000  0.29003185  0.80523276  1
  C  C59  1  0.50000000  0.34920621  0.13960821  1
  C  C60  1  0.50000000  0.34859004  0.47416455  1
  C  C61  1  0.50000000  0.35017235  0.80557849  1
  C  C62  1  0.50000000  0.41019876  0.80505863  1
  C  C63  1  0.50000000  0.47042302  0.80486499  1
  C  C64  1  0.50000000  0.53054903  0.80502088  1
  C  C65  1  0.50000000  0.59063588  0.80517113  1
  C  C66  1  0.50000000  0.65072903  0.80530431  1
  C  C67  1  0.50000000  0.71105688  0.80566333  1
  C  C68  1  0.50000000  0.29000048  0.19444593  1
  C  C69  1  0.50000000  0.28949572  0.52823214  1
  C  C70  1  0.50000000  0.28995486  0.86107408  1
  C  C71  1  0.50000000  0.34938644  0.19274851  1
  C  C72  1  0.50000000  0.34957795  0.52779237  1
  C  C73  1  0.50000000  0.35018912  0.86076395  1
  C  C74  1  0.50000000  0.41024882  0.53058884  1
  C  C75  1  0.50000000  0.41021961  0.86038969  1
  C  C76  1  0.50000000  0.47013277  0.53044349  1
  C  C77  1  0.50000000  0.47046036  0.86013527  1
  C  C78  1  0.50000000  0.53017110  0.53013416  1
  C  C79  1  0.50000000  0.53049118  0.86031317  1
  C  C80  1  0.50000000  0.59008880  0.52997447  1
  C  C81  1  0.50000000  0.59049544  0.86042748  1
  C  C82  1  0.50000000  0.64984539  0.52952584  1
  C  C83  1  0.50000000  0.65056092  0.86080766  1
  C  C84  1  0.50000000  0.70969308  0.52786991  1
  C  C85  1  0.50000000  0.71099415  0.86217403  1
  C  C86  1  0.50000000  0.26054890  0.22341306  1
  C  C87  1  0.50000000  0.26013899  0.55726101  1
  C  C88  1  0.50000000  0.26040388  0.88964683  1
  C  C89  1  0.50000000  0.32001589  0.22196463  1
  C  C90  1  0.50000000  0.31951905  0.55591355  1
  C  C91  1  0.50000000  0.31972824  0.88856244  1
  C  C92  1  0.50000000  0.38054762  0.55595310  1
  C  C93  1  0.50000000  0.38015167  0.88817365  1
  C  C94  1  0.50000000  0.44046760  0.55709870  1
  C  C95  1  0.50000000  0.44034275  0.88732504  1
  C  C96  1  0.50000000  0.50027327  0.55663416  1
  C  C97  1  0.50000000  0.50033966  0.88755876  1
  C  C98  1  0.50000000  0.56019564  0.55644766  1
  C  C99  1  0.50000000  0.56038962  0.88768880  1
  C  C100  1  0.50000000  0.62011580  0.55629283  1
  C  C101  1  0.50000000  0.62053141  0.88789000  1
  C  C102  1  0.50000000  0.67989816  0.55555185  1
  C  C103  1  0.50000000  0.68057583  0.88879237  1
  C  C104  1  0.50000000  0.73904691  0.55417838  1
  C  C105  1  0.50000000  0.73976833  0.89169147  1
  C  C106  1  0.50000000  0.26053711  0.27643276  1
  C  C107  1  0.50000000  0.26043359  0.61030252  1
  C  C108  1  0.50000000  0.26011945  0.94270066  1
  C  C109  1  0.50000000  0.32000361  0.27797163  1
  C  C110  1  0.50000000  0.31974305  0.61137446  1
  C  C111  1  0.50000000  0.31951592  0.94399878  1
  C  C112  1  0.50000000  0.38015981  0.61175520  1
  C  C113  1  0.50000000  0.38053700  0.94394827  1
  C  C114  1  0.50000000  0.44034203  0.61261335  1
  C  C115  1  0.50000000  0.44045474  0.94279396  1
  C  C116  1  0.50000000  0.50033315  0.61244336  1
  C  C117  1  0.50000000  0.50027583  0.94333272  1
  C  C118  1  0.50000000  0.56037701  0.61236450  1
  C  C119  1  0.50000000  0.56019910  0.94359127  1
  C  C120  1  0.50000000  0.62052003  0.61218462  1
  C  C121  1  0.50000000  0.62012405  0.94377262  1
  C  C122  1  0.50000000  0.68056783  0.61130125  1
  C  C123  1  0.50000000  0.67990020  0.94454825  1
  C  C124  1  0.50000000  0.73977079  0.60846842  1
  C  C125  1  0.50000000  0.73903958  0.94599477  1
  H  H126  1  0.50000000  0.23644667  0.03708440  1
  H  H127  1  0.50000000  0.23683671  0.36994098  1
  H  H128  1  0.50000000  0.23727064  0.70354921  1
  H  H129  1  0.50000000  0.76358516  0.70330604  1
  H  H130  1  0.50000000  0.23692768  0.13014270  1
  H  H131  1  0.50000000  0.23640344  0.46270083  1
  H  H132  1  0.50000000  0.23730718  0.79660837  1
  H  H133  1  0.50000000  0.76357009  0.79676561  1
  H  H134  1  0.50000000  0.23708854  0.20349088  1
  H  H135  1  0.50000000  0.23659096  0.53759635  1
  H  H136  1  0.50000000  0.23708831  0.86934297  1
  H  H137  1  0.50000000  0.76197179  0.53255835  1
  H  H138  1  0.50000000  0.76349511  0.87258114  1
  H  H139  1  0.50000000  0.23704920  0.29626727  1
  H  H140  1  0.50000000  0.23707281  0.63043676  1
  H  H141  1  0.50000000  0.23662171  0.96254465  1
  H  H142  1  0.50000000  0.76350008  0.62759207  1
  H  H143  1  0.50000000  0.76191958  0.96775951  1
  H  H144  1  0.50000000  0.37295656  0.28769705  1
  H  H145  1  0.50000000  0.41142968  0.01147826  1
  H  H146  1  0.50000000  0.46992950  0.01177771  1
  H  H147  1  0.50000000  0.53014739  0.01220768  1
  H  H148  1  0.50000000  0.59016136  0.01242003  1
  H  H149  1  0.50000000  0.64959622  0.01293072  1
  H  H150  1  0.50000000  0.70898510  0.01467593  1
  H  H151  1  0.50000000  0.37150136  0.04684315  1
  H  H152  1  0.50000000  0.37260717  0.38036056  1
  H  H153  1  0.50000000  0.37267714  0.11964213  1
  H  H154  1  0.50000000  0.37143390  0.45286527  1
  H  H155  1  0.50000000  0.37291485  0.21254206  1
  H  H156  1  0.50000000  0.41144238  0.48831906  1
  H  H157  1  0.50000000  0.46995984  0.48804463  1
  H  H158  1  0.50000000  0.53015943  0.48774429  1
  H  H159  1  0.50000000  0.59015773  0.48757974  1
  H  H160  1  0.50000000  0.64956488  0.48714955  1
  H  H161  1  0.50000000  0.70900440  0.48550945  1
