# generated using pymatgen
data_H17C57
_symmetry_space_group_name_H-M   'P 1'
_cell_length_a   20.00000000
_cell_length_b   40.19450000
_cell_length_c   26.19872904
_cell_angle_alpha   90.00000000
_cell_angle_beta   90.00000000
_cell_angle_gamma   90.00000000
_symmetry_Int_Tables_number   1
_chemical_formula_structural   H17C57
_chemical_formula_sum   'H34 C114'
_cell_volume   21060.89628406
_cell_formula_units_Z   2
loop_
 _symmetry_equiv_pos_site_id
 _symmetry_equiv_pos_as_xyz
  1  'x, y, z'
loop_
 _atom_site_type_symbol
 _atom_site_label
 _atom_site_symmetry_multiplicity
 _atom_site_fract_x
 _atom_site_fract_y
 _atom_site_fract_z
 _atom_site_occupancy
  C  C0  1  0.50000000  0.28386357  0.61289419  1
  C  C1  1  0.50000000  0.28419856  0.77620291  1
  C  C2  1  0.50000000  0.28391832  0.94062869  1
  C  C3  1  0.50000000  0.31356188  0.64112220  1
  C  C4  1  0.50000000  0.31404404  0.80378513  1
  C  C5  1  0.50000000  0.31389453  0.96660898  1
  C  C6  1  0.50000000  0.28387182  0.55943889  1
  C  C7  1  0.50000000  0.28421756  0.72370144  1
  C  C8  1  0.50000000  0.28384610  0.88717441  1
  C  C9  1  0.50000000  0.34451679  0.61498331  1
  C  C10  1  0.50000000  0.34505797  0.77728693  1
  C  C11  1  0.50000000  0.34419081  0.93894876  1
  C  C12  1  0.50000000  0.37587733  0.64062425  1
  C  C13  1  0.50000000  0.37601614  0.80450785  1
  C  C14  1  0.50000000  0.37459350  0.96498141  1
  C  C15  1  0.50000000  0.31383544  0.53341199  1
  C  C16  1  0.50000000  0.31408244  0.69618114  1
  C  C17  1  0.50000000  0.31351757  0.85883937  1
  C  C18  1  0.50000000  0.34417527  0.56096038  1
  C  C19  1  0.50000000  0.34507758  0.72269423  1
  C  C20  1  0.50000000  0.34449988  0.88493643  1
  C  C21  1  0.50000000  0.41376723  0.11461343  1
  C  C22  1  0.50000000  0.40643263  0.61261414  1
  C  C23  1  0.50000000  0.41547179  0.27590562  1
  C  C24  1  0.50000000  0.40661322  0.77745224  1
  C  C25  1  0.50000000  0.41138894  0.43714089  1
  C  C26  1  0.50000000  0.40600102  0.94280765  1
  C  C27  1  0.50000000  0.44457731  0.14050207  1
  C  C28  1  0.50000000  0.43726851  0.63990601  1
  C  C29  1  0.50000000  0.44562434  0.30427235  1
  C  C30  1  0.50000000  0.43733016  0.80499755  1
  C  C31  1  0.50000000  0.43904262  0.47151654  1
  C  C32  1  0.50000000  0.43725875  0.97244491  1
  C  C33  1  0.50000000  0.37457814  0.53491026  1
  C  C34  1  0.50000000  0.37602515  0.69541543  1
  C  C35  1  0.50000000  0.37586251  0.85929044  1
  C  C36  1  0.50000000  0.41141115  0.06266401  1
  C  C37  1  0.50000000  0.40598292  0.55709854  1
  C  C38  1  0.50000000  0.41545861  0.22380206  1
  C  C39  1  0.50000000  0.40661202  0.72246897  1
  C  C40  1  0.50000000  0.41375312  0.38517573  1
  C  C41  1  0.50000000  0.40641575  0.88730616  1
  C  C42  1  0.50000000  0.47373472  0.11001972  1
  C  C43  1  0.50000000  0.46770159  0.61195353  1
  C  C44  1  0.50000000  0.47655281  0.27779198  1
  C  C45  1  0.50000000  0.46795781  0.77751671  1
  C  C46  1  0.50000000  0.47087073  0.44589860  1
  C  C47  1  0.50000000  0.46751205  0.94357673  1
  C  C48  1  0.50000000  0.50439015  0.13769608  1
  C  C49  1  0.50000000  0.49846875  0.63976680  1
  C  C50  1  0.50000000  0.50566514  0.30910855  1
  C  C51  1  0.50000000  0.49859906  0.80501627  1
  C  C52  1  0.50000000  0.49943579  0.47651665  1
  C  C53  1  0.50000000  0.49878925  0.97006764  1
  C  C54  1  0.50000000  0.43907190  0.02830638  1
  C  C55  1  0.50000000  0.43723666  0.52739612  1
  C  C56  1  0.50000000  0.44561973  0.19546207  1
  C  C57  1  0.50000000  0.43733828  0.69495755  1
  C  C58  1  0.50000000  0.44456155  0.35924760  1
  C  C59  1  0.50000000  0.43726269  0.86001954  1
  C  C60  1  0.50000000  0.47092308  0.05388146  1
  C  C61  1  0.50000000  0.46748571  0.55625311  1
  C  C62  1  0.50000000  0.47654209  0.22194140  1
  C  C63  1  0.50000000  0.46796564  0.72241279  1
  C  C64  1  0.50000000  0.47369665  0.38974616  1
  C  C65  1  0.50000000  0.46771180  0.88787721  1
  C  C66  1  0.50000000  0.52952321  0.61315998  1
  C  C67  1  0.50000000  0.52934501  0.77737269  1
  C  C68  1  0.50000000  0.53014115  0.94159339  1
  C  C69  1  0.50000000  0.56017029  0.64084842  1
  C  C70  1  0.50000000  0.56017748  0.80433165  1
  C  C71  1  0.50000000  0.56060243  0.96641961  1
  C  C72  1  0.50000000  0.49948604  0.02324667  1
  C  C73  1  0.50000000  0.49874427  0.52969931  1
  C  C74  1  0.50000000  0.50565509  0.19066315  1
  C  C75  1  0.50000000  0.49858263  0.69485918  1
  C  C76  1  0.50000000  0.50435990  0.36207071  1
  C  C77  1  0.50000000  0.49849776  0.86008912  1
  C  C78  1  0.50000000  0.53010059  0.55822918  1
  C  C79  1  0.50000000  0.52933005  0.72249028  1
  C  C80  1  0.50000000  0.52955234  0.88667350  1
  C  C81  1  0.50000000  0.59116529  0.61434777  1
  C  C82  1  0.50000000  0.59115702  0.77730453  1
  C  C83  1  0.50000000  0.59133116  0.94025384  1
  C  C84  1  0.50000000  0.62192618  0.64100010  1
  C  C85  1  0.50000000  0.62194128  0.80414208  1
  C  C86  1  0.50000000  0.62146402  0.96701987  1
  C  C87  1  0.50000000  0.56054381  0.53337519  1
  C  C88  1  0.50000000  0.56015057  0.69555160  1
  C  C89  1  0.50000000  0.56021482  0.85903298  1
  C  C90  1  0.50000000  0.59125696  0.55954256  1
  C  C91  1  0.50000000  0.59113130  0.72253785  1
  C  C92  1  0.50000000  0.59123295  0.88548597  1
  C  C93  1  0.50000000  0.65254637  0.61330338  1
  C  C94  1  0.50000000  0.65295980  0.77724046  1
  C  C95  1  0.50000000  0.65224499  0.94145948  1
  C  C96  1  0.50000000  0.68369246  0.63958087  1
  C  C97  1  0.50000000  0.68375250  0.80453792  1
  C  C98  1  0.50000000  0.68279609  0.96862620  1
  C  C99  1  0.50000000  0.62137833  0.53273856  1
  C  C100  1  0.50000000  0.62189789  0.69565955  1
  C  C101  1  0.50000000  0.62199171  0.85880383  1
  C  C102  1  0.50000000  0.65214454  0.55832312  1
  C  C103  1  0.50000000  0.65293373  0.72253258  1
  C  C104  1  0.50000000  0.65263041  0.88647686  1
  C  C105  1  0.50000000  0.71318493  0.61082285  1
  C  C106  1  0.50000000  0.71349573  0.77627479  1
  C  C107  1  0.50000000  0.71275561  0.94252469  1
  C  C108  1  0.50000000  0.68268156  0.53117083  1
  C  C109  1  0.50000000  0.68370317  0.69520248  1
  C  C110  1  0.50000000  0.68378000  0.86016181  1
  C  C111  1  0.50000000  0.71265403  0.55722821  1
  C  C112  1  0.50000000  0.71346326  0.72341012  1
  C  C113  1  0.50000000  0.71328756  0.88892434  1
  H  H114  1  0.50000000  0.25987660  0.63249017  1
  H  H115  1  0.50000000  0.26035354  0.79609144  1
  H  H116  1  0.50000000  0.26026580  0.96141382  1
  H  H117  1  0.50000000  0.26021840  0.53868987  1
  H  H118  1  0.50000000  0.26041767  0.70372275  1
  H  H119  1  0.50000000  0.25981450  0.86771764  1
  H  H120  1  0.50000000  0.73730656  0.63012071  1
  H  H121  1  0.50000000  0.73754614  0.79579823  1
  H  H122  1  0.50000000  0.73623988  0.96378021  1
  H  H123  1  0.50000000  0.73610789  0.53591773  1
  H  H124  1  0.50000000  0.73748364  0.70380592  1
  H  H125  1  0.50000000  0.73745925  0.86974439  1
  H  H126  1  0.50000000  0.68213308  0.48934840  1
  H  H127  1  0.50000000  0.31439478  0.49155081  1
  H  H128  1  0.50000000  0.68224410  0.01045463  1
  H  H129  1  0.50000000  0.31452892  0.00847721  1
  H  H130  1  0.50000000  0.62106411  0.00888301  1
  H  H131  1  0.50000000  0.62094261  0.49085641  1
  H  H132  1  0.50000000  0.37097394  0.00536517  1
  H  H133  1  0.50000000  0.39031844  0.13564477  1
  H  H134  1  0.50000000  0.39154374  0.29551488  1
  H  H135  1  0.50000000  0.38589467  0.44924141  1
  H  H136  1  0.50000000  0.37100180  0.49449646  1
  H  H137  1  0.50000000  0.38592098  0.05053337  1
  H  H138  1  0.50000000  0.39149175  0.20429665  1
  H  H139  1  0.50000000  0.39026206  0.36425381  1
  H  H140  1  0.50000000  0.56221747  0.00804532  1
  H  H141  1  0.50000000  0.56210885  0.49174754  1
  H  H142  1  0.50000000  0.52811900  0.11715336  1
  H  H143  1  0.50000000  0.53022447  0.29097893  1
  H  H144  1  0.50000000  0.52345951  0.45736627  1
  H  H145  1  0.50000000  0.52356643  0.04221462  1
  H  H146  1  0.50000000  0.53016917  0.20889303  1
  H  H147  1  0.50000000  0.52812689  0.38248810  1
