# generated using pymatgen
data_H4C11
_symmetry_space_group_name_H-M   'P 1'
_cell_length_a   10.00000000
_cell_length_b   41.10890000
_cell_length_c   26.39735499
_cell_angle_alpha   90.00000000
_cell_angle_beta   90.00000000
_cell_angle_gamma   90.00000000
_symmetry_Int_Tables_number   1
_chemical_formula_structural   H4C11
_chemical_formula_sum   'H48 C132'
_cell_volume   10851.66226717
_cell_formula_units_Z   12
loop_
 _symmetry_equiv_pos_site_id
 _symmetry_equiv_pos_as_xyz
  1  'x, y, z'
loop_
 _atom_site_type_symbol
 _atom_site_label
 _atom_site_symmetry_multiplicity
 _atom_site_fract_x
 _atom_site_fract_y
 _atom_site_fract_z
 _atom_site_occupancy
  C  C0  1  0.50000000  0.27609478  0.30501035  1
  C  C1  1  0.50000000  0.29183139  0.63990713  1
  C  C2  1  0.50000000  0.29154485  0.97142261  1
  C  C3  1  0.50000000  0.35173904  0.64099777  1
  C  C4  1  0.50000000  0.35294498  0.96512569  1
  C  C5  1  0.50000000  0.41207045  0.64229711  1
  C  C6  1  0.50000000  0.41223393  0.96499119  1
  C  C7  1  0.50000000  0.47197667  0.64194993  1
  C  C8  1  0.50000000  0.47207662  0.96547120  1
  C  C9  1  0.50000000  0.53187633  0.64186694  1
  C  C10  1  0.50000000  0.53204331  0.96558163  1
  C  C11  1  0.50000000  0.59181609  0.64202751  1
  C  C12  1  0.50000000  0.59200636  0.96527780  1
  C  C13  1  0.50000000  0.65185527  0.64156323  1
  C  C14  1  0.50000000  0.65171448  0.96527619  1
  C  C15  1  0.50000000  0.71220867  0.30881285  1
  C  C16  1  0.50000000  0.71171422  0.64083929  1
  C  C17  1  0.50000000  0.71242285  0.96912099  1
  C  C18  1  0.50000000  0.28757888  0.02790366  1
  C  C19  1  0.50000000  0.27824978  0.36115470  1
  C  C20  1  0.50000000  0.29168013  0.69527065  1
  C  C21  1  0.50000000  0.35167093  0.69552910  1
  C  C22  1  0.50000000  0.41184984  0.69629682  1
  C  C23  1  0.50000000  0.47188884  0.69612684  1
  C  C24  1  0.50000000  0.53187626  0.69610732  1
  C  C25  1  0.50000000  0.59187690  0.69615510  1
  C  C26  1  0.50000000  0.65188960  0.69583076  1
  C  C27  1  0.50000000  0.71303644  0.02217262  1
  C  C28  1  0.50000000  0.71267487  0.36145827  1
  C  C29  1  0.50000000  0.71190062  0.69542714  1
  C  C30  1  0.50000000  0.25639554  0.05184343  1
  C  C31  1  0.50000000  0.25187641  0.39556488  1
  C  C32  1  0.50000000  0.26262470  0.72364649  1
  C  C33  1  0.50000000  0.31329072  0.06355803  1
  C  C34  1  0.50000000  0.30893715  0.38451390  1
  C  C35  1  0.50000000  0.32157677  0.72272387  1
  C  C36  1  0.50000000  0.38155386  0.72274912  1
  C  C37  1  0.50000000  0.44193602  0.72296891  1
  C  C38  1  0.50000000  0.50191074  0.72299174  1
  C  C39  1  0.50000000  0.56181425  0.72299155  1
  C  C40  1  0.50000000  0.62188821  0.72287883  1
  C  C41  1  0.50000000  0.68194148  0.72281913  1
  C  C42  1  0.50000000  0.74057974  0.05388383  1
  C  C43  1  0.50000000  0.74040014  0.39333827  1
  C  C44  1  0.50000000  0.74118303  0.72390939  1
  C  C45  1  0.50000000  0.25184596  0.10447681  1
  C  C46  1  0.50000000  0.25637195  0.44819536  1
  C  C47  1  0.50000000  0.26263178  0.77624399  1
  C  C48  1  0.50000000  0.30887578  0.11563305  1
  C  C49  1  0.50000000  0.31330290  0.43657589  1
  C  C50  1  0.50000000  0.32158158  0.77724053  1
  C  C51  1  0.50000000  0.38155810  0.77722648  1
  C  C52  1  0.50000000  0.44194375  0.77704248  1
  C  C53  1  0.50000000  0.50191845  0.77704022  1
  C  C54  1  0.50000000  0.56182838  0.77704123  1
  C  C55  1  0.50000000  0.62189274  0.77713597  1
  C  C56  1  0.50000000  0.68194402  0.77719196  1
  C  C57  1  0.50000000  0.74035453  0.10671262  1
  C  C58  1  0.50000000  0.74053937  0.44614617  1
  C  C59  1  0.50000000  0.74116602  0.77611074  1
  C  C60  1  0.50000000  0.27818304  0.13892824  1
  C  C61  1  0.50000000  0.28754174  0.47208433  1
  C  C62  1  0.50000000  0.29167312  0.80465732  1
  C  C63  1  0.50000000  0.35166029  0.80443353  1
  C  C64  1  0.50000000  0.41184792  0.80370155  1
  C  C65  1  0.50000000  0.47189956  0.80389870  1
  C  C66  1  0.50000000  0.53188843  0.80391463  1
  C  C67  1  0.50000000  0.59188898  0.80387622  1
  C  C68  1  0.50000000  0.65189502  0.80416445  1
  C  C69  1  0.50000000  0.71261153  0.13854795  1
  C  C70  1  0.50000000  0.71295983  0.47774905  1
  C  C71  1  0.50000000  0.71189626  0.80457291  1
  C  C72  1  0.50000000  0.27604628  0.19500500  1
  C  C73  1  0.50000000  0.29158093  0.52853211  1
  C  C74  1  0.50000000  0.29177353  0.86003117  1
  C  C75  1  0.50000000  0.35304383  0.53479943  1
  C  C76  1  0.50000000  0.35171755  0.85898032  1
  C  C77  1  0.50000000  0.41228944  0.53500065  1
  C  C78  1  0.50000000  0.41206236  0.85770293  1
  C  C79  1  0.50000000  0.47210513  0.53448925  1
  C  C80  1  0.50000000  0.47197018  0.85808152  1
  C  C81  1  0.50000000  0.53203293  0.53442251  1
  C  C82  1  0.50000000  0.53188420  0.85814442  1
  C  C83  1  0.50000000  0.59198065  0.53463475  1
  C  C84  1  0.50000000  0.59182254  0.85798830  1
  C  C85  1  0.50000000  0.65169409  0.53463694  1
  C  C86  1  0.50000000  0.65187243  0.85841027  1
  C  C87  1  0.50000000  0.71219404  0.19120630  1
  C  C88  1  0.50000000  0.71237653  0.53080989  1
  C  C89  1  0.50000000  0.71174485  0.85916016  1
  C  C90  1  0.50000000  0.24693777  0.22347301  1
  C  C91  1  0.50000000  0.26322643  0.55832605  1
  C  C92  1  0.50000000  0.26294159  0.88887053  1
  C  C93  1  0.50000000  0.30496483  0.22378352  1
  C  C94  1  0.50000000  0.32208758  0.55720349  1
  C  C95  1  0.50000000  0.32167300  0.88716606  1
  C  C96  1  0.50000000  0.38255818  0.56137043  1
  C  C97  1  0.50000000  0.38205181  0.88441488  1
  C  C98  1  0.50000000  0.44226212  0.56058629  1
  C  C99  1  0.50000000  0.44205225  0.88468238  1
  C  C100  1  0.50000000  0.50204958  0.56032137  1
  C  C101  1  0.50000000  0.50200043  0.88497459  1
  C  C102  1  0.50000000  0.56184145  0.56038993  1
  C  C103  1  0.50000000  0.56189264  0.88491510  1
  C  C104  1  0.50000000  0.62156554  0.56072846  1
  C  C105  1  0.50000000  0.62183141  0.88472682  1
  C  C106  1  0.50000000  0.68154883  0.55903094  1
  C  C107  1  0.50000000  0.68199401  0.88584185  1
  C  C108  1  0.50000000  0.73969781  0.22370363  1
  C  C109  1  0.50000000  0.74163808  0.56028617  1
  C  C110  1  0.50000000  0.74139368  0.88789378  1
  C  C111  1  0.50000000  0.24696752  0.27663564  1
  C  C112  1  0.50000000  0.26299727  0.61108330  1
  C  C113  1  0.50000000  0.26318427  0.94164265  1
  C  C114  1  0.50000000  0.30500512  0.27620897  1
  C  C115  1  0.50000000  0.32172292  0.61273707  1
  C  C116  1  0.50000000  0.32201117  0.94268519  1
  C  C117  1  0.50000000  0.38207992  0.61558790  1
  C  C118  1  0.50000000  0.38249002  0.93863471  1
  C  C119  1  0.50000000  0.44206329  0.61533598  1
  C  C120  1  0.50000000  0.44221935  0.93940866  1
  C  C121  1  0.50000000  0.50199498  0.61504127  1
  C  C122  1  0.50000000  0.50204878  0.93969502  1
  C  C123  1  0.50000000  0.56188932  0.61508781  1
  C  C124  1  0.50000000  0.56185011  0.93957920  1
  C  C125  1  0.50000000  0.62181289  0.61524477  1
  C  C126  1  0.50000000  0.62159060  0.93920422  1
  C  C127  1  0.50000000  0.68196876  0.61413332  1
  C  C128  1  0.50000000  0.68158559  0.94092824  1
  C  C129  1  0.50000000  0.73968718  0.27629065  1
  C  C130  1  0.50000000  0.74134623  0.61209646  1
  C  C131  1  0.50000000  0.74168750  0.93969894  1
  H  H132  1  0.50000000  0.23408094  0.02923374  1
  H  H133  1  0.50000000  0.22678110  0.38146438  1
  H  H134  1  0.50000000  0.23917712  0.70411892  1
  H  H135  1  0.50000000  0.76465849  0.03594995  1
  H  H136  1  0.50000000  0.76438026  0.37512204  1
  H  H137  1  0.50000000  0.76461586  0.70439001  1
  H  H138  1  0.50000000  0.22676012  0.11864790  1
  H  H139  1  0.50000000  0.23405535  0.47083316  1
  H  H140  1  0.50000000  0.23920717  0.79582582  1
  H  H141  1  0.50000000  0.76429849  0.12506248  1
  H  H142  1  0.50000000  0.76458664  0.46409344  1
  H  H143  1  0.50000000  0.76455813  0.79571950  1
  H  H144  1  0.50000000  0.22339714  0.20400040  1
  H  H145  1  0.50000000  0.23949685  0.53968156  1
  H  H146  1  0.50000000  0.23921161  0.87012502  1
  H  H147  1  0.50000000  0.76372317  0.20555985  1
  H  H148  1  0.50000000  0.76515679  0.54087057  1
  H  H149  1  0.50000000  0.76465644  0.86788976  1
  H  H150  1  0.50000000  0.22348998  0.29626316  1
  H  H151  1  0.50000000  0.23928476  0.62979923  1
  H  H152  1  0.50000000  0.23944946  0.96026096  1
  H  H153  1  0.50000000  0.76373818  0.29435486  1
  H  H154  1  0.50000000  0.76462457  0.63208533  1
  H  H155  1  0.50000000  0.76515252  0.95928554  1
  H  H156  1  0.50000000  0.35584584  0.00563941  1
  H  H157  1  0.50000000  0.41208673  0.00652941  1
  H  H158  1  0.50000000  0.47194897  0.00700077  1
  H  H159  1  0.50000000  0.53208565  0.00712028  1
  H  H160  1  0.50000000  0.59207684  0.00679190  1
  H  H161  1  0.50000000  0.65045720  0.00663412  1
  H  H162  1  0.50000000  0.68801327  0.29114889  1
  H  H163  1  0.50000000  0.68949524  0.04143161  1
  H  H164  1  0.50000000  0.68876068  0.37998413  1
  H  H165  1  0.50000000  0.33862731  0.05278333  1
  H  H166  1  0.50000000  0.33119972  0.36199927  1
  H  H167  1  0.50000000  0.33116805  0.13810411  1
  H  H168  1  0.50000000  0.33856677  0.44766031  1
  H  H169  1  0.50000000  0.68869525  0.12004937  1
  H  H170  1  0.50000000  0.68948596  0.45823842  1
  H  H171  1  0.50000000  0.35615599  0.49429853  1
  H  H172  1  0.50000000  0.41213690  0.49347186  1
  H  H173  1  0.50000000  0.47204449  0.49294183  1
  H  H174  1  0.50000000  0.53203214  0.49288869  1
  H  H175  1  0.50000000  0.59203880  0.49309732  1
  H  H176  1  0.50000000  0.65047626  0.49325992  1
  H  H177  1  0.50000000  0.68800593  0.20892305  1
  H  H178  1  0.50000000  0.32869807  0.20526333  1
  H  H179  1  0.50000000  0.32882124  0.29450742  1
