# generated using pymatgen
data_H4C15
_symmetry_space_group_name_H-M   'P 1'
_cell_length_a   20.00000000
_cell_length_b   40.19450000
_cell_length_c   25.82041721
_cell_angle_alpha   90.00000000
_cell_angle_beta   90.00000000
_cell_angle_gamma   90.00000000
_symmetry_Int_Tables_number   1
_chemical_formula_structural   H4C15
_chemical_formula_sum   'H32 C120'
_cell_volume   20756.77519094
_cell_formula_units_Z   8
loop_
 _symmetry_equiv_pos_site_id
 _symmetry_equiv_pos_as_xyz
  1  'x, y, z'
loop_
 _atom_site_type_symbol
 _atom_site_label
 _atom_site_symmetry_multiplicity
 _atom_site_fract_x
 _atom_site_fract_y
 _atom_site_fract_z
 _atom_site_occupancy
  C  C0  1  0.50000000  0.28488587  0.61059330  1
  C  C1  1  0.50000000  0.28524435  0.77680773  1
  C  C2  1  0.50000000  0.28502546  0.94327472  1
  C  C3  1  0.50000000  0.31495464  0.63879184  1
  C  C4  1  0.50000000  0.31529695  0.80523676  1
  C  C5  1  0.50000000  0.31509110  0.97021362  1
  C  C6  1  0.50000000  0.28491965  0.55680924  1
  C  C7  1  0.50000000  0.28518008  0.72356944  1
  C  C8  1  0.50000000  0.28499138  0.88948083  1
  C  C9  1  0.50000000  0.34582773  0.61129854  1
  C  C10  1  0.50000000  0.34592215  0.77777918  1
  C  C11  1  0.50000000  0.34571079  0.94405706  1
  C  C12  1  0.50000000  0.37781398  0.13959753  1
  C  C13  1  0.50000000  0.37679922  0.63938824  1
  C  C14  1  0.50000000  0.37771369  0.30693048  1
  C  C15  1  0.50000000  0.37693106  0.80570731  1
  C  C16  1  0.50000000  0.37805999  0.47406486  1
  C  C17  1  0.50000000  0.37726881  0.97200838  1
  C  C18  1  0.50000000  0.31495549  0.52980359  1
  C  C19  1  0.50000000  0.31519194  0.69493897  1
  C  C20  1  0.50000000  0.31506139  0.86132050  1
  C  C21  1  0.50000000  0.34557558  0.55595406  1
  C  C22  1  0.50000000  0.34588784  0.72228974  1
  C  C23  1  0.50000000  0.34594161  0.88876965  1
  C  C24  1  0.50000000  0.40777579  0.11063959  1
  C  C25  1  0.50000000  0.40773861  0.61155707  1
  C  C26  1  0.50000000  0.40768647  0.27786432  1
  C  C27  1  0.50000000  0.40779959  0.77774024  1
  C  C28  1  0.50000000  0.40772495  0.44525905  1
  C  C29  1  0.50000000  0.40787856  0.94368123  1
  C  C30  1  0.50000000  0.43855846  0.13840299  1
  C  C31  1  0.50000000  0.43851379  0.63916836  1
  C  C32  1  0.50000000  0.43844861  0.30570929  1
  C  C33  1  0.50000000  0.43851178  0.80522173  1
  C  C34  1  0.50000000  0.43844066  0.47290027  1
  C  C35  1  0.50000000  0.43855983  0.97161643  1
  C  C36  1  0.50000000  0.37820659  0.02589392  1
  C  C37  1  0.50000000  0.37712369  0.52796821  1
  C  C38  1  0.50000000  0.37778312  0.19296648  1
  C  C39  1  0.50000000  0.37688789  0.69432209  1
  C  C40  1  0.50000000  0.37771874  0.36029759  1
  C  C41  1  0.50000000  0.37687600  0.86064758  1
  C  C42  1  0.50000000  0.40786630  0.05468573  1
  C  C43  1  0.50000000  0.40775527  0.55628650  1
  C  C44  1  0.50000000  0.40773234  0.22203394  1
  C  C45  1  0.50000000  0.40778165  0.72221393  1
  C  C46  1  0.50000000  0.40764928  0.38930507  1
  C  C47  1  0.50000000  0.40782437  0.88841588  1
  C  C48  1  0.50000000  0.46940969  0.11064442  1
  C  C49  1  0.50000000  0.46926899  0.61132802  1
  C  C50  1  0.50000000  0.46923688  0.27790248  1
  C  C51  1  0.50000000  0.46942381  0.77748627  1
  C  C52  1  0.50000000  0.46919002  0.44520812  1
  C  C53  1  0.50000000  0.46925348  0.94354798  1
  C  C54  1  0.50000000  0.49932979  0.13976957  1
  C  C55  1  0.50000000  0.50038284  0.63913525  1
  C  C56  1  0.50000000  0.49919657  0.30703150  1
  C  C57  1  0.50000000  0.50031364  0.80523526  1
  C  C58  1  0.50000000  0.49888161  0.47402068  1
  C  C59  1  0.50000000  0.49991077  0.97200517  1
  C  C60  1  0.50000000  0.43860239  0.02707235  1
  C  C61  1  0.50000000  0.43845161  0.52834641  1
  C  C62  1  0.50000000  0.43852679  0.19424870  1
  C  C63  1  0.50000000  0.43848635  0.69467347  1
  C  C64  1  0.50000000  0.43843032  0.36154361  1
  C  C65  1  0.50000000  0.43855976  0.86071330  1
  C  C66  1  0.50000000  0.46936113  0.05477412  1
  C  C67  1  0.50000000  0.46919681  0.55630167  1
  C  C68  1  0.50000000  0.46927901  0.22214014  1
  C  C69  1  0.50000000  0.46941816  0.72236190  1
  C  C70  1  0.50000000  0.46923682  0.38935418  1
  C  C71  1  0.50000000  0.46931376  0.88850280  1
  C  C72  1  0.50000000  0.53100814  0.61180508  1
  C  C73  1  0.50000000  0.53101065  0.77757438  1
  C  C74  1  0.50000000  0.53143616  0.94386153  1
  C  C75  1  0.50000000  0.56188330  0.63946998  1
  C  C76  1  0.50000000  0.56186558  0.80497156  1
  C  C77  1  0.50000000  0.56174291  0.96933157  1
  C  C78  1  0.50000000  0.49899965  0.02583841  1
  C  C79  1  0.50000000  0.49987501  0.52783335  1
  C  C80  1  0.50000000  0.49928373  0.19310752  1
  C  C81  1  0.50000000  0.50029916  0.69454435  1
  C  C82  1  0.50000000  0.49917765  0.36033435  1
  C  C83  1  0.50000000  0.50040131  0.86063999  1
  C  C84  1  0.50000000  0.53144494  0.55589814  1
  C  C85  1  0.50000000  0.53101602  0.72214963  1
  C  C86  1  0.50000000  0.53100720  0.88794991  1
  C  C87  1  0.50000000  0.59272601  0.61230150  1
  C  C88  1  0.50000000  0.59277947  0.77761431  1
  C  C89  1  0.50000000  0.59262548  0.94300737  1
  C  C90  1  0.50000000  0.62347187  0.63937877  1
  C  C91  1  0.50000000  0.62343824  0.80495508  1
  C  C92  1  0.50000000  0.62269525  0.97016843  1
  C  C93  1  0.50000000  0.56174567  0.53033624  1
  C  C94  1  0.50000000  0.56188620  0.69473646  1
  C  C95  1  0.50000000  0.56184918  0.86022499  1
  C  C96  1  0.50000000  0.59268776  0.55661358  1
  C  C97  1  0.50000000  0.59279868  0.72209618  1
  C  C98  1  0.50000000  0.59267326  0.88735951  1
  C  C99  1  0.50000000  0.65415719  0.61129109  1
  C  C100  1  0.50000000  0.65447701  0.77760282  1
  C  C101  1  0.50000000  0.65358615  0.94427059  1
  C  C102  1  0.50000000  0.68524070  0.63803661  1
  C  C103  1  0.50000000  0.68512756  0.80537483  1
  C  C104  1  0.50000000  0.68406731  0.97188462  1
  C  C105  1  0.50000000  0.62282834  0.52956603  1
  C  C106  1  0.50000000  0.62347370  0.69476303  1
  C  C107  1  0.50000000  0.62341275  0.86033444  1
  C  C108  1  0.50000000  0.65370949  0.55556134  1
  C  C109  1  0.50000000  0.65451097  0.72214434  1
  C  C110  1  0.50000000  0.65404686  0.88851599  1
  C  C111  1  0.50000000  0.71478134  0.60885480  1
  C  C112  1  0.50000000  0.71493804  0.77676503  1
  C  C113  1  0.50000000  0.71407800  0.94533346  1
  C  C114  1  0.50000000  0.68422533  0.52805913  1
  C  C115  1  0.50000000  0.68520725  0.69446211  1
  C  C116  1  0.50000000  0.68511002  0.86178432  1
  C  C117  1  0.50000000  0.71425783  0.55454614  1
  C  C118  1  0.50000000  0.71497255  0.72319408  1
  C  C119  1  0.50000000  0.71461199  0.89103671  1
  H  H120  1  0.50000000  0.26098488  0.63070939  1
  H  H121  1  0.50000000  0.26135753  0.79698606  1
  H  H122  1  0.50000000  0.26144905  0.96458991  1
  H  H123  1  0.50000000  0.26134963  0.53547748  1
  H  H124  1  0.50000000  0.26119800  0.70364977  1
  H  H125  1  0.50000000  0.26114276  0.86917947  1
  H  H126  1  0.50000000  0.73888424  0.62845697  1
  H  H127  1  0.50000000  0.73885468  0.79686547  1
  H  H128  1  0.50000000  0.73768567  0.96658847  1
  H  H129  1  0.50000000  0.73780248  0.53310107  1
  H  H130  1  0.50000000  0.73892061  0.70318917  1
  H  H131  1  0.50000000  0.73876402  0.87161671  1
  H  H132  1  0.50000000  0.68359905  0.48564210  1
  H  H133  1  0.50000000  0.31408003  0.48748790  1
  H  H134  1  0.50000000  0.68341138  0.01434879  1
  H  H135  1  0.50000000  0.31420762  0.01251311  1
  H  H136  1  0.50000000  0.35377564  0.11973805  1
  H  H137  1  0.50000000  0.35369278  0.28708003  1
  H  H138  1  0.50000000  0.35460610  0.45301020  1
  H  H139  1  0.50000000  0.35472481  0.04683396  1
  H  H140  1  0.50000000  0.35378919  0.21290310  1
  H  H141  1  0.50000000  0.35367577  0.38015514  1
  H  H142  1  0.50000000  0.62224119  0.01264259  1
  H  H143  1  0.50000000  0.62248736  0.48708701  1
  H  H144  1  0.50000000  0.56285877  0.01162656  1
  H  H145  1  0.50000000  0.56274246  0.48799041  1
  H  H146  1  0.50000000  0.52336819  0.11994282  1
  H  H147  1  0.50000000  0.52316842  0.28709973  1
  H  H148  1  0.50000000  0.52235935  0.45296735  1
  H  H149  1  0.50000000  0.52256639  0.04663356  1
  H  H150  1  0.50000000  0.52322326  0.21315158  1
  H  H151  1  0.50000000  0.52316906  0.38028978  1
