# generated using pymatgen
data_H3C11
_symmetry_space_group_name_H-M   'P 1'
_cell_length_a   10.00000000
_cell_length_b   41.10890000
_cell_length_c   26.34045682
_cell_angle_alpha   90.00000000
_cell_angle_beta   90.00000000
_cell_angle_gamma   90.00000000
_symmetry_Int_Tables_number   1
_chemical_formula_structural   H3C11
_chemical_formula_sum   'H36 C132'
_cell_volume   10828.27205509
_cell_formula_units_Z   12
loop_
 _symmetry_equiv_pos_site_id
 _symmetry_equiv_pos_as_xyz
  1  'x, y, z'
loop_
 _atom_site_type_symbol
 _atom_site_label
 _atom_site_symmetry_multiplicity
 _atom_site_fract_x
 _atom_site_fract_y
 _atom_site_fract_z
 _atom_site_occupancy
  C  C0  1  0.50000000  0.28869747  0.64051634  1
  C  C1  1  0.50000000  0.28984699  0.96735817  1
  C  C2  1  0.50000000  0.34910538  0.64255108  1
  C  C3  1  0.50000000  0.34977617  0.96460849  1
  C  C4  1  0.50000000  0.40998408  0.64157018  1
  C  C5  1  0.50000000  0.40853707  0.96301859  1
  C  C6  1  0.50000000  0.47020519  0.30476179  1
  C  C7  1  0.50000000  0.47019300  0.63964324  1
  C  C8  1  0.50000000  0.46949583  0.97251076  1
  C  C9  1  0.50000000  0.52979483  0.30476179  1
  C  C10  1  0.50000000  0.52980702  0.63964324  1
  C  C11  1  0.50000000  0.53050419  0.97251076  1
  C  C12  1  0.50000000  0.59001594  0.64157018  1
  C  C13  1  0.50000000  0.59146295  0.96301859  1
  C  C14  1  0.50000000  0.65089464  0.64255108  1
  C  C15  1  0.50000000  0.65022384  0.96460849  1
  C  C16  1  0.50000000  0.71130255  0.64051634  1
  C  C17  1  0.50000000  0.71015303  0.96735817  1
  C  C18  1  0.50000000  0.28880352  0.69573273  1
  C  C19  1  0.50000000  0.34929231  0.69659367  1
  C  C20  1  0.50000000  0.41001007  0.69591330  1
  C  C21  1  0.50000000  0.46972124  0.02811915  1
  C  C22  1  0.50000000  0.47059897  0.35931185  1
  C  C23  1  0.50000000  0.47013121  0.69481632  1
  C  C24  1  0.50000000  0.53027878  0.02811915  1
  C  C25  1  0.50000000  0.52940105  0.35931185  1
  C  C26  1  0.50000000  0.52986881  0.69481632  1
  C  C27  1  0.50000000  0.58998995  0.69591330  1
  C  C28  1  0.50000000  0.65070771  0.69659367  1
  C  C29  1  0.50000000  0.71119650  0.69573273  1
  C  C30  1  0.50000000  0.25971547  0.72374918  1
  C  C31  1  0.50000000  0.31887367  0.72292684  1
  C  C32  1  0.50000000  0.37964691  0.72279906  1
  C  C33  1  0.50000000  0.44168227  0.06063461  1
  C  C34  1  0.50000000  0.44168296  0.38743165  1
  C  C35  1  0.50000000  0.44018614  0.72260783  1
  C  C36  1  0.50000000  0.50000001  0.05581446  1
  C  C37  1  0.50000000  0.50000001  0.38823111  1
  C  C38  1  0.50000000  0.50000001  0.72246693  1
  C  C39  1  0.50000000  0.55831775  0.06063461  1
  C  C40  1  0.50000000  0.55831706  0.38743165  1
  C  C41  1  0.50000000  0.55981388  0.72260783  1
  C  C42  1  0.50000000  0.62035311  0.72279906  1
  C  C43  1  0.50000000  0.68112635  0.72292684  1
  C  C44  1  0.50000000  0.74028455  0.72374918  1
  C  C45  1  0.50000000  0.25970635  0.77627743  1
  C  C46  1  0.50000000  0.31886268  0.77708604  1
  C  C47  1  0.50000000  0.37964404  0.77717766  1
  C  C48  1  0.50000000  0.44168397  0.11251815  1
  C  C49  1  0.50000000  0.44169154  0.43931725  1
  C  C50  1  0.50000000  0.44019516  0.77736288  1
  C  C51  1  0.50000000  0.50000001  0.11172691  1
  C  C52  1  0.50000000  0.50000001  0.44414305  1
  C  C53  1  0.50000000  0.50000001  0.77751543  1
  C  C54  1  0.50000000  0.55831605  0.11251815  1
  C  C55  1  0.50000000  0.55830848  0.43931725  1
  C  C56  1  0.50000000  0.55980486  0.77736288  1
  C  C57  1  0.50000000  0.62035597  0.77717766  1
  C  C58  1  0.50000000  0.68113733  0.77708604  1
  C  C59  1  0.50000000  0.74029367  0.77627743  1
  C  C60  1  0.50000000  0.28879215  0.80430474  1
  C  C61  1  0.50000000  0.34929296  0.80339692  1
  C  C62  1  0.50000000  0.41000964  0.80404920  1
  C  C63  1  0.50000000  0.47059954  0.14063886  1
  C  C64  1  0.50000000  0.46972767  0.47184358  1
  C  C65  1  0.50000000  0.47013187  0.80516303  1
  C  C66  1  0.50000000  0.52940048  0.14063885  1
  C  C67  1  0.50000000  0.53027235  0.47184358  1
  C  C68  1  0.50000000  0.52986815  0.80516304  1
  C  C69  1  0.50000000  0.58999038  0.80404920  1
  C  C70  1  0.50000000  0.65070705  0.80339692  1
  C  C71  1  0.50000000  0.71120787  0.80430475  1
  C  C72  1  0.50000000  0.28978905  0.53280385  1
  C  C73  1  0.50000000  0.28867204  0.85952734  1
  C  C74  1  0.50000000  0.34975895  0.53527719  1
  C  C75  1  0.50000000  0.34909559  0.85743036  1
  C  C76  1  0.50000000  0.40854079  0.53694900  1
  C  C77  1  0.50000000  0.40998709  0.85838442  1
  C  C78  1  0.50000000  0.47022197  0.19518228  1
  C  C79  1  0.50000000  0.46950019  0.52746761  1
  C  C80  1  0.50000000  0.47019686  0.86034729  1
  C  C81  1  0.50000000  0.52977805  0.19518228  1
  C  C82  1  0.50000000  0.53049983  0.52746761  1
  C  C83  1  0.50000000  0.52980316  0.86034729  1
  C  C84  1  0.50000000  0.59145923  0.53694900  1
  C  C85  1  0.50000000  0.59001293  0.85838442  1
  C  C86  1  0.50000000  0.65024107  0.53527719  1
  C  C87  1  0.50000000  0.65090443  0.85743036  1
  C  C88  1  0.50000000  0.71021097  0.53280385  1
  C  C89  1  0.50000000  0.71132798  0.85952735  1
  C  C90  1  0.50000000  0.26040442  0.55854153  1
  C  C91  1  0.50000000  0.25987961  0.88834568  1
  C  C92  1  0.50000000  0.31956624  0.56009585  1
  C  C93  1  0.50000000  0.31918735  0.88527024  1
  C  C94  1  0.50000000  0.37888560  0.56284944  1
  C  C95  1  0.50000000  0.37922364  0.88332817  1
  C  C96  1  0.50000000  0.44086090  0.22380065  1
  C  C97  1  0.50000000  0.43939298  0.55814953  1
  C  C98  1  0.50000000  0.43996517  0.88667164  1
  C  C99  1  0.50000000  0.50000001  0.22270914  1
  C  C100  1  0.50000000  0.50000001  0.55489049  1
  C  C101  1  0.50000000  0.50000001  0.88881152  1
  C  C102  1  0.50000000  0.55913912  0.22380065  1
  C  C103  1  0.50000000  0.56060704  0.55814953  1
  C  C104  1  0.50000000  0.56003485  0.88667164  1
  C  C105  1  0.50000000  0.62111442  0.56284944  1
  C  C106  1  0.50000000  0.62077638  0.88332817  1
  C  C107  1  0.50000000  0.68043378  0.56009586  1
  C  C108  1  0.50000000  0.68081266  0.88527024  1
  C  C109  1  0.50000000  0.73959560  0.55854154  1
  C  C110  1  0.50000000  0.74012041  0.88834568  1
  C  C111  1  0.50000000  0.25986106  0.61183889  1
  C  C112  1  0.50000000  0.26045875  0.94164665  1
  C  C113  1  0.50000000  0.31919944  0.61472507  1
  C  C114  1  0.50000000  0.31957165  0.93990202  1
  C  C115  1  0.50000000  0.37922008  0.61661992  1
  C  C116  1  0.50000000  0.37889914  0.93707907  1
  C  C117  1  0.50000000  0.44084994  0.27608976  1
  C  C118  1  0.50000000  0.43996620  0.61329762  1
  C  C119  1  0.50000000  0.43939515  0.94181870  1
  C  C120  1  0.50000000  0.50000001  0.27725593  1
  C  C121  1  0.50000000  0.50000001  0.61118623  1
  C  C122  1  0.50000000  0.50000001  0.94510054  1
  C  C123  1  0.50000000  0.55915007  0.27608976  1
  C  C124  1  0.50000000  0.56003382  0.61329762  1
  C  C125  1  0.50000000  0.56060487  0.94181870  1
  C  C126  1  0.50000000  0.62077994  0.61661992  1
  C  C127  1  0.50000000  0.62110088  0.93707907  1
  C  C128  1  0.50000000  0.68080058  0.61472508  1
  C  C129  1  0.50000000  0.68042837  0.93990202  1
  C  C130  1  0.50000000  0.74013896  0.61183890  1
  C  C131  1  0.50000000  0.73954127  0.94164665  1
  H  H132  1  0.50000000  0.23632459  0.70403536  1
  H  H133  1  0.50000000  0.76367543  0.70403536  1
  H  H134  1  0.50000000  0.23631003  0.79596222  1
  H  H135  1  0.50000000  0.76368998  0.79596222  1
  H  H136  1  0.50000000  0.23737840  0.53750474  1
  H  H137  1  0.50000000  0.23618651  0.86950466  1
  H  H138  1  0.50000000  0.76262162  0.53750474  1
  H  H139  1  0.50000000  0.76381351  0.86950466  1
  H  H140  1  0.50000000  0.23625638  0.63096978  1
  H  H141  1  0.50000000  0.23743489  0.96267525  1
  H  H142  1  0.50000000  0.76374364  0.63096978  1
  H  H143  1  0.50000000  0.76256513  0.96267525  1
  H  H144  1  0.50000000  0.29063338  0.00897327  1
  H  H145  1  0.50000000  0.35071797  0.00620545  1
  H  H146  1  0.50000000  0.40441860  0.00284639  1
  H  H147  1  0.50000000  0.59558142  0.00284639  1
  H  H148  1  0.50000000  0.64928205  0.00620546  1
  H  H149  1  0.50000000  0.70936663  0.00897328  1
  H  H150  1  0.50000000  0.41712402  0.04732141  1
  H  H151  1  0.50000000  0.41803241  0.36852087  1
  H  H152  1  0.50000000  0.58287600  0.04732141  1
  H  H153  1  0.50000000  0.58196761  0.36852087  1
  H  H154  1  0.50000000  0.41799592  0.13130286  1
  H  H155  1  0.50000000  0.41716160  0.45272392  1
  H  H156  1  0.50000000  0.58200409  0.13130287  1
  H  H157  1  0.50000000  0.58283842  0.45272392  1
  H  H158  1  0.50000000  0.29056002  0.49123151  1
  H  H159  1  0.50000000  0.35072020  0.49363701  1
  H  H160  1  0.50000000  0.40442176  0.49712341  1
  H  H161  1  0.50000000  0.59557826  0.49712341  1
  H  H162  1  0.50000000  0.64927982  0.49363702  1
  H  H163  1  0.50000000  0.70944000  0.49123151  1
  H  H164  1  0.50000000  0.41741693  0.20428231  1
  H  H165  1  0.50000000  0.58258309  0.20428231  1
  H  H166  1  0.50000000  0.41736717  0.29549515  1
  H  H167  1  0.50000000  0.58263285  0.29549514  1
