# generated using pymatgen
data_H16C57
_symmetry_space_group_name_H-M   'P 1'
_cell_length_a   20.00000000
_cell_length_b   37.22700000
_cell_length_c   25.84700466
_cell_angle_alpha   90.00000000
_cell_angle_beta   90.00000000
_cell_angle_gamma   90.00000000
_symmetry_Int_Tables_number   1
_chemical_formula_structural   H16C57
_chemical_formula_sum   'H32 C114'
_cell_volume   19244.12885264
_cell_formula_units_Z   2
loop_
 _symmetry_equiv_pos_site_id
 _symmetry_equiv_pos_as_xyz
  1  'x, y, z'
loop_
 _atom_site_type_symbol
 _atom_site_label
 _atom_site_symmetry_multiplicity
 _atom_site_fract_x
 _atom_site_fract_y
 _atom_site_fract_z
 _atom_site_occupancy
  C  C0  1  0.50000000  0.31685407  0.55426535  1
  C  C1  1  0.50000000  0.31671667  0.88881796  1
  C  C2  1  0.50000000  0.38339640  0.55672351  1
  C  C3  1  0.50000000  0.38343677  0.88751613  1
  C  C4  1  0.50000000  0.44950696  0.55604995  1
  C  C5  1  0.50000000  0.44993713  0.88807460  1
  C  C6  1  0.50000000  0.51641859  0.22204583  1
  C  C7  1  0.50000000  0.51660538  0.55637469  1
  C  C8  1  0.50000000  0.51650353  0.88845800  1
  C  C9  1  0.50000000  0.58288004  0.22202465  1
  C  C10  1  0.50000000  0.58293802  0.55625980  1
  C  C11  1  0.50000000  0.58296739  0.88830360  1
  C  C12  1  0.50000000  0.64991229  0.55598946  1
  C  C13  1  0.50000000  0.64970529  0.88864876  1
  C  C14  1  0.50000000  0.71537397  0.55661604  1
  C  C15  1  0.50000000  0.71543822  0.88937836  1
  C  C16  1  0.50000000  0.31672535  0.61124479  1
  C  C17  1  0.50000000  0.31685647  0.94580504  1
  C  C18  1  0.50000000  0.38343681  0.61249414  1
  C  C19  1  0.50000000  0.38340601  0.94327024  1
  C  C20  1  0.50000000  0.44992091  0.61189920  1
  C  C21  1  0.50000000  0.44953828  0.94391718  1
  C  C22  1  0.50000000  0.51638476  0.27807831  1
  C  C23  1  0.50000000  0.51649708  0.61151668  1
  C  C24  1  0.50000000  0.51662338  0.94359859  1
  C  C25  1  0.50000000  0.58288656  0.27805704  1
  C  C26  1  0.50000000  0.58297448  0.61163824  1
  C  C27  1  0.50000000  0.58294868  0.94367890  1
  C  C28  1  0.50000000  0.64972377  0.61126781  1
  C  C29  1  0.50000000  0.64992593  0.94391832  1
  C  C30  1  0.50000000  0.71546406  0.61042028  1
  C  C31  1  0.50000000  0.71540446  0.94318658  1
  C  C32  1  0.50000000  0.28456050  0.63947114  1
  C  C33  1  0.50000000  0.28610418  0.97561122  1
  C  C34  1  0.50000000  0.34981189  0.63926956  1
  C  C35  1  0.50000000  0.35111108  0.97053092  1
  C  C36  1  0.50000000  0.41643224  0.63950647  1
  C  C37  1  0.50000000  0.41679244  0.96946229  1
  C  C38  1  0.50000000  0.48417789  0.30705498  1
  C  C39  1  0.50000000  0.48296733  0.63915728  1
  C  C40  1  0.50000000  0.48359444  0.97188852  1
  C  C41  1  0.50000000  0.54965219  0.30584989  1
  C  C42  1  0.50000000  0.54973058  0.63927594  1
  C  C43  1  0.50000000  0.54980374  0.97156957  1
  C  C44  1  0.50000000  0.61508784  0.30692774  1
  C  C45  1  0.50000000  0.61629008  0.63928837  1
  C  C46  1  0.50000000  0.61594276  0.97183543  1
  C  C47  1  0.50000000  0.68308573  0.63864398  1
  C  C48  1  0.50000000  0.68301460  0.97011058  1
  C  C49  1  0.50000000  0.28439487  0.69311421  1
  C  C50  1  0.50000000  0.34976333  0.69468456  1
  C  C51  1  0.50000000  0.41642853  0.69506292  1
  C  C52  1  0.50000000  0.48463070  0.02583440  1
  C  C53  1  0.50000000  0.48423146  0.36053396  1
  C  C54  1  0.50000000  0.48309999  0.69475586  1
  C  C55  1  0.50000000  0.54981711  0.02696524  1
  C  C56  1  0.50000000  0.54969006  0.36158901  1
  C  C57  1  0.50000000  0.54974155  0.69465912  1
  C  C58  1  0.50000000  0.61498497  0.02589974  1
  C  C59  1  0.50000000  0.61509010  0.36041148  1
  C  C60  1  0.50000000  0.61618153  0.69440890  1
  C  C61  1  0.50000000  0.68280972  0.69482204  1
  C  C62  1  0.50000000  0.31647218  0.72194852  1
  C  C63  1  0.50000000  0.38323628  0.72233327  1
  C  C64  1  0.50000000  0.44980384  0.72239551  1
  C  C65  1  0.50000000  0.51656016  0.05455193  1
  C  C66  1  0.50000000  0.51643917  0.38942900  1
  C  C67  1  0.50000000  0.51624709  0.72228025  1
  C  C68  1  0.50000000  0.58303130  0.05453624  1
  C  C69  1  0.50000000  0.58294664  0.38932322  1
  C  C70  1  0.50000000  0.58292063  0.72212408  1
  C  C71  1  0.50000000  0.64970132  0.72228273  1
  C  C72  1  0.50000000  0.71516169  0.72336411  1
  C  C73  1  0.50000000  0.31646923  0.77812318  1
  C  C74  1  0.50000000  0.38323350  0.77770953  1
  C  C75  1  0.50000000  0.44980214  0.77760524  1
  C  C76  1  0.50000000  0.51639174  0.11065537  1
  C  C77  1  0.50000000  0.51654372  0.44549498  1
  C  C78  1  0.50000000  0.51624504  0.77768061  1
  C  C79  1  0.50000000  0.58293580  0.11073616  1
  C  C80  1  0.50000000  0.58298560  0.44546971  1
  C  C81  1  0.50000000  0.58291747  0.77782221  1
  C  C82  1  0.50000000  0.64969415  0.77770668  1
  C  C83  1  0.50000000  0.71515933  0.77660001  1
  C  C84  1  0.50000000  0.28438123  0.80694262  1
  C  C85  1  0.50000000  0.34976212  0.80537609  1
  C  C86  1  0.50000000  0.41643054  0.80495428  1
  C  C87  1  0.50000000  0.48419636  0.13961408  1
  C  C88  1  0.50000000  0.48459942  0.47414700  1
  C  C89  1  0.50000000  0.48310346  0.80522259  1
  C  C90  1  0.50000000  0.54966800  0.13845615  1
  C  C91  1  0.50000000  0.54977828  0.47301968  1
  C  C92  1  0.50000000  0.54974108  0.80529189  1
  C  C93  1  0.50000000  0.61507249  0.13969283  1
  C  C94  1  0.50000000  0.61494251  0.47399445  1
  C  C95  1  0.50000000  0.61616751  0.80555339  1
  C  C96  1  0.50000000  0.68279906  0.80509898  1
  C  C97  1  0.50000000  0.28605731  0.52457035  1
  C  C98  1  0.50000000  0.28454754  0.86059664  1
  C  C99  1  0.50000000  0.35108998  0.52949819  1
  C  C100  1  0.50000000  0.34980292  0.86078036  1
  C  C101  1  0.50000000  0.41676682  0.53046264  1
  C  C102  1  0.50000000  0.41643580  0.86049711  1
  C  C103  1  0.50000000  0.48419240  0.19311853  1
  C  C104  1  0.50000000  0.48356475  0.52809647  1
  C  C105  1  0.50000000  0.48297681  0.86081461  1
  C  C106  1  0.50000000  0.54966507  0.19419956  1
  C  C107  1  0.50000000  0.54978198  0.52839259  1
  C  C108  1  0.50000000  0.54972765  0.86067843  1
  C  C109  1  0.50000000  0.61507407  0.19318220  1
  C  C110  1  0.50000000  0.61592996  0.52808379  1
  C  C111  1  0.50000000  0.61626890  0.86065522  1
  C  C112  1  0.50000000  0.68297538  0.52973022  1
  C  C113  1  0.50000000  0.68304263  0.86123502  1
  H  H114  1  0.50000000  0.74078533  0.53525449  1
  H  H115  1  0.50000000  0.74122391  0.86920225  1
  H  H116  1  0.50000000  0.74130812  0.63042226  1
  H  H117  1  0.50000000  0.74083216  0.96452439  1
  H  H118  1  0.50000000  0.25879705  0.61911168  1
  H  H119  1  0.50000000  0.25898009  0.95940342  1
  H  H120  1  0.50000000  0.25839347  0.71273973  1
  H  H121  1  0.50000000  0.74103121  0.70345652  1
  H  H122  1  0.50000000  0.74099744  0.79659904  1
  H  H123  1  0.50000000  0.25841012  0.78721317  1
  H  H124  1  0.50000000  0.25899204  0.54098596  1
  H  H125  1  0.50000000  0.25881540  0.88104520  1
  H  H126  1  0.50000000  0.28830110  0.01788985  1
  H  H127  1  0.50000000  0.35191549  0.01295875  1
  H  H128  1  0.50000000  0.41560811  0.01172196  1
  H  H129  1  0.50000000  0.45820012  0.28732725  1
  H  H130  1  0.50000000  0.64101295  0.28711272  1
  H  H131  1  0.50000000  0.68384994  0.01237433  1
  H  H132  1  0.50000000  0.45921878  0.04671527  1
  H  H133  1  0.50000000  0.45821058  0.38020346  1
  H  H134  1  0.50000000  0.64039053  0.04676425  1
  H  H135  1  0.50000000  0.64108495  0.38010488  1
  H  H136  1  0.50000000  0.45814799  0.12000001  1
  H  H137  1  0.50000000  0.45926713  0.45305065  1
  H  H138  1  0.50000000  0.64110632  0.12011689  1
  H  H139  1  0.50000000  0.64028382  0.45293581  1
  H  H140  1  0.50000000  0.28816135  0.48228308  1
  H  H141  1  0.50000000  0.35188417  0.48707712  1
  H  H142  1  0.50000000  0.41557230  0.48816019  1
  H  H143  1  0.50000000  0.45821962  0.21289588  1
  H  H144  1  0.50000000  0.64099319  0.21302156  1
  H  H145  1  0.50000000  0.68377010  0.48745408  1
