# generated using pymatgen
data_H17C57
_symmetry_space_group_name_H-M   'P 1'
_cell_length_a   20.00000000
_cell_length_b   37.22700000
_cell_length_c   26.34163512
_cell_angle_alpha   90.00000000
_cell_angle_beta   90.00000000
_cell_angle_gamma   90.00000000
_symmetry_Int_Tables_number   1
_chemical_formula_structural   H17C57
_chemical_formula_sum   'H34 C114'
_cell_volume   19612.40100919
_cell_formula_units_Z   2
loop_
 _symmetry_equiv_pos_site_id
 _symmetry_equiv_pos_as_xyz
  1  'x, y, z'
loop_
 _atom_site_type_symbol
 _atom_site_label
 _atom_site_symmetry_multiplicity
 _atom_site_fract_x
 _atom_site_fract_y
 _atom_site_fract_z
 _atom_site_occupancy
  C  C0  1  0.50000000  0.31640690  0.55878639  1
  C  C1  1  0.50000000  0.31651121  0.88537181  1
  C  C2  1  0.50000000  0.38267587  0.56277665  1
  C  C3  1  0.50000000  0.38324042  0.88340698  1
  C  C4  1  0.50000000  0.45120657  0.22380054  1
  C  C5  1  0.50000000  0.44960662  0.55814691  1
  C  C6  1  0.50000000  0.45023671  0.88683319  1
  C  C7  1  0.50000000  0.51657803  0.22275053  1
  C  C8  1  0.50000000  0.51657125  0.55484003  1
  C  C9  1  0.50000000  0.51655742  0.88884001  1
  C  C10  1  0.50000000  0.58198971  0.22380504  1
  C  C11  1  0.50000000  0.58362630  0.55791090  1
  C  C12  1  0.50000000  0.58296891  0.88691920  1
  C  C13  1  0.50000000  0.65044727  0.56261093  1
  C  C14  1  0.50000000  0.65001882  0.88388389  1
  C  C15  1  0.50000000  0.71548873  0.56050491  1
  C  C16  1  0.50000000  0.71559521  0.88636676  1
  C  C17  1  0.50000000  0.31645799  0.61462016  1
  C  C18  1  0.50000000  0.31641087  0.94114863  1
  C  C19  1  0.50000000  0.38318900  0.61659024  1
  C  C20  1  0.50000000  0.38269407  0.93719155  1
  C  C21  1  0.50000000  0.45117714  0.27607544  1
  C  C22  1  0.50000000  0.45018796  0.61321185  1
  C  C23  1  0.50000000  0.44961000  0.94193613  1
  C  C24  1  0.50000000  0.51656782  0.27722768  1
  C  C25  1  0.50000000  0.51653463  0.61117438  1
  C  C26  1  0.50000000  0.51657705  0.94519502  1
  C  C27  1  0.50000000  0.58199793  0.27608828  1
  C  C28  1  0.50000000  0.58297410  0.61311632  1
  C  C29  1  0.50000000  0.58360103  0.94212454  1
  C  C30  1  0.50000000  0.65004823  0.61617316  1
  C  C31  1  0.50000000  0.65040408  0.93743086  1
  C  C32  1  0.50000000  0.71559271  0.61364749  1
  C  C33  1  0.50000000  0.71547989  0.93950558  1
  C  C34  1  0.50000000  0.28420221  0.64212850  1
  C  C35  1  0.50000000  0.28564306  0.97068546  1
  C  C36  1  0.50000000  0.34954781  0.64234701  1
  C  C37  1  0.50000000  0.35059165  0.96476811  1
  C  C38  1  0.50000000  0.41691043  0.64149081  1
  C  C39  1  0.50000000  0.41543379  0.96312066  1
  C  C40  1  0.50000000  0.48363858  0.30467658  1
  C  C41  1  0.50000000  0.48362169  0.63961683  1
  C  C42  1  0.50000000  0.48287988  0.97260785  1
  C  C43  1  0.50000000  0.54949878  0.30468873  1
  C  C44  1  0.50000000  0.54949165  0.63968197  1
  C  C45  1  0.50000000  0.55027031  0.97271086  1
  C  C46  1  0.50000000  0.61597800  0.64134971  1
  C  C47  1  0.50000000  0.61770394  0.96339029  1
  C  C48  1  0.50000000  0.68353043  0.64195393  1
  C  C49  1  0.50000000  0.68300360  0.96508177  1
  C  C50  1  0.50000000  0.28422285  0.69465105  1
  C  C51  1  0.50000000  0.34979715  0.69635897  1
  C  C52  1  0.50000000  0.41699783  0.69608110  1
  C  C53  1  0.50000000  0.48315483  0.02827646  1
  C  C54  1  0.50000000  0.48405723  0.35921532  1
  C  C55  1  0.50000000  0.48359191  0.69482399  1
  C  C56  1  0.50000000  0.55002908  0.02828685  1
  C  C57  1  0.50000000  0.54899974  0.35919261  1
  C  C58  1  0.50000000  0.54953063  0.69469360  1
  C  C59  1  0.50000000  0.61580521  0.69579900  1
  C  C60  1  0.50000000  0.68295858  0.69666009  1
  C  C61  1  0.50000000  0.31645150  0.72267225  1
  C  C62  1  0.50000000  0.38364863  0.72292959  1
  C  C63  1  0.50000000  0.45220033  0.06077827  1
  C  C64  1  0.50000000  0.45211925  0.38734060  1
  C  C65  1  0.50000000  0.45041512  0.72274475  1
  C  C66  1  0.50000000  0.51657418  0.05597859  1
  C  C67  1  0.50000000  0.51653313  0.38810743  1
  C  C68  1  0.50000000  0.51647322  0.72242798  1
  C  C69  1  0.50000000  0.58099678  0.06087461  1
  C  C70  1  0.50000000  0.58094742  0.38731598  1
  C  C71  1  0.50000000  0.58263330  0.72250839  1
  C  C72  1  0.50000000  0.64940393  0.72289497  1
  C  C73  1  0.50000000  0.71530349  0.72398984  1
  C  C74  1  0.50000000  0.31645696  0.77739097  1
  C  C75  1  0.50000000  0.38367050  0.77711512  1
  C  C76  1  0.50000000  0.45215825  0.11267357  1
  C  C77  1  0.50000000  0.45219546  0.43923171  1
  C  C78  1  0.50000000  0.45042959  0.77727056  1
  C  C79  1  0.50000000  0.51654645  0.11187248  1
  C  C80  1  0.50000000  0.51656731  0.44403814  1
  C  C81  1  0.50000000  0.51649176  0.77758083  1
  C  C82  1  0.50000000  0.58093688  0.11272829  1
  C  C83  1  0.50000000  0.58098776  0.43918006  1
  C  C84  1  0.50000000  0.58264357  0.77749729  1
  C  C85  1  0.50000000  0.64941131  0.77717936  1
  C  C86  1  0.50000000  0.71531762  0.77615727  1
  C  C87  1  0.50000000  0.28423705  0.80543463  1
  C  C88  1  0.50000000  0.34981829  0.80367715  1
  C  C89  1  0.50000000  0.41703126  0.80395103  1
  C  C90  1  0.50000000  0.48408648  0.14076514  1
  C  C91  1  0.50000000  0.48314595  0.47175313  1
  C  C92  1  0.50000000  0.48361743  0.80517564  1
  C  C93  1  0.50000000  0.54899792  0.14080024  1
  C  C94  1  0.50000000  0.55001669  0.47175160  1
  C  C95  1  0.50000000  0.54954880  0.80531196  1
  C  C96  1  0.50000000  0.61580090  0.80423704  1
  C  C97  1  0.50000000  0.68295499  0.80344110  1
  C  C98  1  0.50000000  0.28570777  0.52908061  1
  C  C99  1  0.50000000  0.28425438  0.85792207  1
  C  C100  1  0.50000000  0.35059238  0.53511491  1
  C  C101  1  0.50000000  0.34959644  0.85766689  1
  C  C102  1  0.50000000  0.41543699  0.53691713  1
  C  C103  1  0.50000000  0.41697199  0.85854111  1
  C  C104  1  0.50000000  0.48367654  0.19528282  1
  C  C105  1  0.50000000  0.48287171  0.52744052  1
  C  C106  1  0.50000000  0.48366763  0.86037908  1
  C  C107  1  0.50000000  0.54948627  0.19527815  1
  C  C108  1  0.50000000  0.55026782  0.52733665  1
  C  C109  1  0.50000000  0.54950301  0.86034381  1
  C  C110  1  0.50000000  0.61773957  0.53668722  1
  C  C111  1  0.50000000  0.61595935  0.85869164  1
  C  C112  1  0.50000000  0.68303000  0.53487911  1
  C  C113  1  0.50000000  0.68350648  0.85813121  1
  H  H114  1  0.50000000  0.74090949  0.53954674  1
  H  H115  1  0.50000000  0.74153166  0.86692108  1
  H  H116  1  0.50000000  0.74155890  0.63298157  1
  H  H117  1  0.50000000  0.74091475  0.96042752  1
  H  H118  1  0.50000000  0.25843133  0.62212007  1
  H  H119  1  0.50000000  0.25839171  0.95518381  1
  H  H120  1  0.50000000  0.25836176  0.71429166  1
  H  H121  1  0.50000000  0.74095107  0.70389520  1
  H  H122  1  0.50000000  0.74097495  0.79623986  1
  H  H123  1  0.50000000  0.25830867  0.78598521  1
  H  H124  1  0.50000000  0.25838525  0.54432235  1
  H  H125  1  0.50000000  0.25849823  0.87793450  1
  H  H126  1  0.50000000  0.42536456  0.20414930  1
  H  H127  1  0.50000000  0.60789025  0.20423241  1
  H  H128  1  0.50000000  0.42527458  0.29557130  1
  H  H129  1  0.50000000  0.60794998  0.29551065  1
  H  H130  1  0.50000000  0.28819129  0.01213867  1
  H  H131  1  0.50000000  0.35188718  0.00635132  1
  H  H132  1  0.50000000  0.41091021  0.00298606  1
  H  H133  1  0.50000000  0.62225354  0.00325501  1
  H  H134  1  0.50000000  0.68206876  0.00665898  1
  H  H135  1  0.50000000  0.42512580  0.04738826  1
  H  H136  1  0.50000000  0.42596899  0.36848022  1
  H  H137  1  0.50000000  0.60817093  0.04774879  1
  H  H138  1  0.50000000  0.60704202  0.36833674  1
  H  H139  1  0.50000000  0.42600748  0.13148754  1
  H  H140  1  0.50000000  0.42510027  0.45263363  1
  H  H141  1  0.50000000  0.60703233  0.13170364  1
  H  H142  1  0.50000000  0.60816393  0.45239416  1
  H  H143  1  0.50000000  0.28839979  0.48762677  1
  H  H144  1  0.50000000  0.35185072  0.49347122  1
  H  H145  1  0.50000000  0.41089746  0.49707919  1
  H  H146  1  0.50000000  0.62233907  0.49685540  1
  H  H147  1  0.50000000  0.68218158  0.49325811  1
