# generated using pymatgen
data_H17C57
_symmetry_space_group_name_H-M   'P 1'
_cell_length_a   20.00000000
_cell_length_b   37.22700000
_cell_length_c   26.31464183
_cell_angle_alpha   90.00000000
_cell_angle_beta   90.00000000
_cell_angle_gamma   90.00000000
_symmetry_Int_Tables_number   1
_chemical_formula_structural   H17C57
_chemical_formula_sum   'H34 C114'
_cell_volume   19592.30342534
_cell_formula_units_Z   2
loop_
 _symmetry_equiv_pos_site_id
 _symmetry_equiv_pos_as_xyz
  1  'x, y, z'
loop_
 _atom_site_type_symbol
 _atom_site_label
 _atom_site_symmetry_multiplicity
 _atom_site_fract_x
 _atom_site_fract_y
 _atom_site_fract_z
 _atom_site_occupancy
  C  C0  1  0.50000000  0.31681508  0.55746856  1
  C  C1  1  0.50000000  0.31641704  0.88654740  1
  C  C2  1  0.50000000  0.38337681  0.56034788  1
  C  C3  1  0.50000000  0.38315352  0.88475213  1
  C  C4  1  0.50000000  0.44896828  0.56273319  1
  C  C5  1  0.50000000  0.44934841  0.88344699  1
  C  C6  1  0.50000000  0.51807638  0.22385279  1
  C  C7  1  0.50000000  0.51586579  0.55778680  1
  C  C8  1  0.50000000  0.51628634  0.88699176  1
  C  C9  1  0.50000000  0.58350851  0.22271774  1
  C  C10  1  0.50000000  0.58307613  0.55468838  1
  C  C11  1  0.50000000  0.58266285  0.88906707  1
  C  C12  1  0.50000000  0.64888041  0.22379573  1
  C  C13  1  0.50000000  0.65054571  0.55781999  1
  C  C14  1  0.50000000  0.64905410  0.88740125  1
  C  C15  1  0.50000000  0.71717267  0.56547843  1
  C  C16  1  0.50000000  0.71534470  0.88239430  1
  C  C17  1  0.50000000  0.31645880  0.61344364  1
  C  C18  1  0.50000000  0.31675484  0.94257160  1
  C  C19  1  0.50000000  0.38318164  0.61523099  1
  C  C20  1  0.50000000  0.38333289  0.93964254  1
  C  C21  1  0.50000000  0.44936449  0.61649171  1
  C  C22  1  0.50000000  0.44895200  0.93719258  1
  C  C23  1  0.50000000  0.51806296  0.27613126  1
  C  C24  1  0.50000000  0.51629715  0.61299884  1
  C  C25  1  0.50000000  0.51585340  0.94221437  1
  C  C26  1  0.50000000  0.58351245  0.27730398  1
  C  C27  1  0.50000000  0.58268501  0.61095920  1
  C  C28  1  0.50000000  0.58307161  0.94534024  1
  C  C29  1  0.50000000  0.64889738  0.27617849  1
  C  C30  1  0.50000000  0.64909731  0.61264073  1
  C  C31  1  0.50000000  0.65054050  0.94221123  1
  C  C32  1  0.50000000  0.71538769  0.61761141  1
  C  C33  1  0.50000000  0.71717205  0.93451777  1
  C  C34  1  0.50000000  0.28426556  0.64113672  1
  C  C35  1  0.50000000  0.28601696  0.97219947  1
  C  C36  1  0.50000000  0.34947477  0.64116705  1
  C  C37  1  0.50000000  0.35088600  0.96668439  1
  C  C38  1  0.50000000  0.41593233  0.64259897  1
  C  C39  1  0.50000000  0.41665531  0.96455613  1
  C  C40  1  0.50000000  0.48320220  0.64137550  1
  C  C41  1  0.50000000  0.48167149  0.96335379  1
  C  C42  1  0.50000000  0.55053674  0.30473032  1
  C  C43  1  0.50000000  0.54961153  0.63949046  1
  C  C44  1  0.50000000  0.54933519  0.97279136  1
  C  C45  1  0.50000000  0.61643186  0.30485797  1
  C  C46  1  0.50000000  0.61530074  0.63932628  1
  C  C47  1  0.50000000  0.61699928  0.97262828  1
  C  C48  1  0.50000000  0.68173281  0.64148613  1
  C  C49  1  0.50000000  0.68570164  0.96262598  1
  C  C50  1  0.50000000  0.28403054  0.69388965  1
  C  C51  1  0.50000000  0.34935755  0.69561680  1
  C  C52  1  0.50000000  0.41605415  0.69672228  1
  C  C53  1  0.50000000  0.48319012  0.69591512  1
  C  C54  1  0.50000000  0.54964319  0.02836059  1
  C  C55  1  0.50000000  0.55087161  0.35923866  1
  C  C56  1  0.50000000  0.54941621  0.69452591  1
  C  C57  1  0.50000000  0.61650298  0.02818790  1
  C  C58  1  0.50000000  0.61592805  0.35947681  1
  C  C59  1  0.50000000  0.61496672  0.69440444  1
  C  C60  1  0.50000000  0.68098454  0.69634726  1
  C  C61  1  0.50000000  0.31605854  0.72237553  1
  C  C62  1  0.50000000  0.38276472  0.72294218  1
  C  C63  1  0.50000000  0.44969941  0.72294698  1
  C  C64  1  0.50000000  0.51868389  0.06091174  1
  C  C65  1  0.50000000  0.51883825  0.38722464  1
  C  C66  1  0.50000000  0.51633421  0.72259381  1
  C  C67  1  0.50000000  0.58314147  0.05596684  1
  C  C68  1  0.50000000  0.58332252  0.38816832  1
  C  C69  1  0.50000000  0.58223958  0.72227787  1
  C  C70  1  0.50000000  0.64761612  0.06024173  1
  C  C71  1  0.50000000  0.64783332  0.38782585  1
  C  C72  1  0.50000000  0.64786523  0.72269288  1
  C  C73  1  0.50000000  0.71328942  0.72408302  1
  C  C74  1  0.50000000  0.31606330  0.77761499  1
  C  C75  1  0.50000000  0.38273601  0.77704792  1
  C  C76  1  0.50000000  0.44971565  0.77700418  1
  C  C77  1  0.50000000  0.51883914  0.11280145  1
  C  C78  1  0.50000000  0.51867134  0.43911923  1
  C  C79  1  0.50000000  0.51632868  0.77736933  1
  C  C80  1  0.50000000  0.58332186  0.11184916  1
  C  C81  1  0.50000000  0.58313176  0.44405106  1
  C  C82  1  0.50000000  0.58222548  0.77769260  1
  C  C83  1  0.50000000  0.64783373  0.11217826  1
  C  C84  1  0.50000000  0.64759076  0.43975636  1
  C  C85  1  0.50000000  0.64782832  0.77731407  1
  C  C86  1  0.50000000  0.71322750  0.77613338  1
  C  C87  1  0.50000000  0.28401935  0.80605171  1
  C  C88  1  0.50000000  0.34934476  0.80438543  1
  C  C89  1  0.50000000  0.41605044  0.80323273  1
  C  C90  1  0.50000000  0.48319201  0.80404288  1
  C  C91  1  0.50000000  0.55087318  0.14078519  1
  C  C92  1  0.50000000  0.54963448  0.47166246  1
  C  C93  1  0.50000000  0.54940776  0.80543695  1
  C  C94  1  0.50000000  0.61593082  0.14052704  1
  C  C95  1  0.50000000  0.61649179  0.47184084  1
  C  C96  1  0.50000000  0.61493172  0.80558877  1
  C  C97  1  0.50000000  0.68090333  0.80372392  1
  C  C98  1  0.50000000  0.28609080  0.52786367  1
  C  C99  1  0.50000000  0.28422048  0.85882943  1
  C  C100  1  0.50000000  0.35092740  0.53335684  1
  C  C101  1  0.50000000  0.34944539  0.85883402  1
  C  C102  1  0.50000000  0.41667378  0.53534972  1
  C  C103  1  0.50000000  0.41591182  0.85735290  1
  C  C104  1  0.50000000  0.48170530  0.53662997  1
  C  C105  1  0.50000000  0.48319237  0.85858992  1
  C  C106  1  0.50000000  0.55054718  0.19528420  1
  C  C107  1  0.50000000  0.54933716  0.52721794  1
  C  C108  1  0.50000000  0.54959984  0.86049281  1
  C  C109  1  0.50000000  0.61641523  0.19514620  1
  C  C110  1  0.50000000  0.61700128  0.52740582  1
  C  C111  1  0.50000000  0.61527012  0.86068706  1
  C  C112  1  0.50000000  0.68570088  0.53736210  1
  C  C113  1  0.50000000  0.68167328  0.85856017  1
  H  H114  1  0.50000000  0.74307443  0.54574268  1
  H  H115  1  0.50000000  0.74009786  0.86043455  1
  H  H116  1  0.50000000  0.74019501  0.63948018  1
  H  H117  1  0.50000000  0.74308947  0.95426754  1
  H  H118  1  0.50000000  0.25848080  0.62116900  1
  H  H119  1  0.50000000  0.25885340  0.95641499  1
  H  H120  1  0.50000000  0.25798344  0.71309943  1
  H  H121  1  0.50000000  0.73934959  0.70523992  1
  H  H122  1  0.50000000  0.73917018  0.79529578  1
  H  H123  1  0.50000000  0.25808121  0.78653472  1
  H  H124  1  0.50000000  0.25890794  0.54351191  1
  H  H125  1  0.50000000  0.25849485  0.87897904  1
  H  H126  1  0.50000000  0.49221166  0.20426197  1
  H  H127  1  0.50000000  0.67480935  0.20427785  1
  H  H128  1  0.50000000  0.49215358  0.29561295  1
  H  H129  1  0.50000000  0.67487064  0.29557498  1
  H  H130  1  0.50000000  0.28849448  0.01373551  1
  H  H131  1  0.50000000  0.35190153  0.00836002  1
  H  H132  1  0.50000000  0.41747256  0.00619897  1
  H  H133  1  0.50000000  0.47688541  0.00321970  1
  H  H134  1  0.50000000  0.69117616  0.00244385  1
  H  H135  1  0.50000000  0.49156672  0.04753924  1
  H  H136  1  0.50000000  0.49277542  0.36815128  1
  H  H137  1  0.50000000  0.67440414  0.04570042  1
  H  H138  1  0.50000000  0.67397836  0.36894785  1
  H  H139  1  0.50000000  0.49277623  0.13190476  1
  H  H140  1  0.50000000  0.49154730  0.45245723  1
  H  H141  1  0.50000000  0.67398562  0.13101797  1
  H  H142  1  0.50000000  0.67437835  0.45425711  1
  H  H143  1  0.50000000  0.28864404  0.48638829  1
  H  H144  1  0.50000000  0.35190431  0.49171287  1
  H  H145  1  0.50000000  0.41741071  0.49366893  1
  H  H146  1  0.50000000  0.47691654  0.49677168  1
  H  H147  1  0.50000000  0.69114055  0.49752501  1
