# generated using pymatgen
data_H17C66
_symmetry_space_group_name_H-M   'P 1'
_cell_length_a   10.00000000
_cell_length_b   41.10890000
_cell_length_c   25.88999556
_cell_angle_alpha   90.00000000
_cell_angle_beta   90.00000000
_cell_angle_gamma   90.00000000
_symmetry_Int_Tables_number   1
_chemical_formula_structural   H17C66
_chemical_formula_sum   'H34 C132'
_cell_volume   10643.09238364
_cell_formula_units_Z   2
loop_
 _symmetry_equiv_pos_site_id
 _symmetry_equiv_pos_as_xyz
  1  'x, y, z'
loop_
 _atom_site_type_symbol
 _atom_site_label
 _atom_site_symmetry_multiplicity
 _atom_site_fract_x
 _atom_site_fract_y
 _atom_site_fract_z
 _atom_site_occupancy
  C  C0  1  0.50000000  0.28906193  0.63802412  1
  C  C1  1  0.50000000  0.29030367  0.97215428  1
  C  C2  1  0.50000000  0.34949757  0.63933235  1
  C  C3  1  0.50000000  0.35016406  0.97044732  1
  C  C4  1  0.50000000  0.40951768  0.63979333  1
  C  C5  1  0.50000000  0.40995246  0.96987949  1
  C  C6  1  0.50000000  0.46951496  0.63996134  1
  C  C7  1  0.50000000  0.46987042  0.96942551  1
  C  C8  1  0.50000000  0.52972607  0.63970197  1
  C  C9  1  0.50000000  0.52973413  0.96908911  1
  C  C10  1  0.50000000  0.59104240  0.30701508  1
  C  C11  1  0.50000000  0.58987100  0.63947892  1
  C  C12  1  0.50000000  0.59028389  0.97136753  1
  C  C13  1  0.50000000  0.65002654  0.30592863  1
  C  C14  1  0.50000000  0.64994757  0.63954141  1
  C  C15  1  0.50000000  0.65002432  0.97138647  1
  C  C16  1  0.50000000  0.70907263  0.30665777  1
  C  C17  1  0.50000000  0.71034960  0.63870882  1
  C  C18  1  0.50000000  0.70981310  0.97140563  1
  C  C19  1  0.50000000  0.28903391  0.69448023  1
  C  C20  1  0.50000000  0.34935249  0.69480369  1
  C  C21  1  0.50000000  0.40940262  0.69499558  1
  C  C22  1  0.50000000  0.46952099  0.69517662  1
  C  C23  1  0.50000000  0.52978506  0.69506831  1
  C  C24  1  0.50000000  0.59132486  0.02560165  1
  C  C25  1  0.50000000  0.59117734  0.36079115  1
  C  C26  1  0.50000000  0.58996563  0.69475799  1
  C  C27  1  0.50000000  0.65027041  0.02663022  1
  C  C28  1  0.50000000  0.65012327  0.36160343  1
  C  C29  1  0.50000000  0.65004634  0.69472851  1
  C  C30  1  0.50000000  0.70932912  0.02601316  1
  C  C31  1  0.50000000  0.70916572  0.36038192  1
  C  C32  1  0.50000000  0.71036907  0.69464701  1
  C  C33  1  0.50000000  0.25997346  0.72325552  1
  C  C34  1  0.50000000  0.31906484  0.72226001  1
  C  C35  1  0.50000000  0.37922547  0.72231189  1
  C  C36  1  0.50000000  0.43946360  0.72241462  1
  C  C37  1  0.50000000  0.49969028  0.72245220  1
  C  C38  1  0.50000000  0.55983224  0.72239720  1
  C  C39  1  0.50000000  0.62014186  0.05402371  1
  C  C40  1  0.50000000  0.62004689  0.38938091  1
  C  C41  1  0.50000000  0.62000775  0.72222853  1
  C  C42  1  0.50000000  0.68059328  0.05426817  1
  C  C43  1  0.50000000  0.68032280  0.38909121  1
  C  C44  1  0.50000000  0.68032323  0.72221106  1
  C  C45  1  0.50000000  0.73960263  0.72334144  1
  C  C46  1  0.50000000  0.25998972  0.77683418  1
  C  C47  1  0.50000000  0.31907118  0.77782353  1
  C  C48  1  0.50000000  0.37922887  0.77776357  1
  C  C49  1  0.50000000  0.43946590  0.77764390  1
  C  C50  1  0.50000000  0.49968768  0.77757731  1
  C  C51  1  0.50000000  0.55982706  0.77758021  1
  C  C52  1  0.50000000  0.62003738  0.11063798  1
  C  C53  1  0.50000000  0.62016822  0.44595742  1
  C  C54  1  0.50000000  0.62000119  0.77769760  1
  C  C55  1  0.50000000  0.68033047  0.11088121  1
  C  C56  1  0.50000000  0.68059152  0.44570060  1
  C  C57  1  0.50000000  0.68030482  0.77770349  1
  C  C58  1  0.50000000  0.73958681  0.77665371  1
  C  C59  1  0.50000000  0.28904549  0.80561593  1
  C  C60  1  0.50000000  0.34935737  0.80528207  1
  C  C61  1  0.50000000  0.40940596  0.80506788  1
  C  C62  1  0.50000000  0.46951879  0.80486382  1
  C  C63  1  0.50000000  0.52978580  0.80492549  1
  C  C64  1  0.50000000  0.59116413  0.13924488  1
  C  C65  1  0.50000000  0.59132176  0.47428068  1
  C  C66  1  0.50000000  0.58996622  0.80518930  1
  C  C67  1  0.50000000  0.65014006  0.13840142  1
  C  C68  1  0.50000000  0.65028572  0.47334528  1
  C  C69  1  0.50000000  0.65003441  0.80520081  1
  C  C70  1  0.50000000  0.70916266  0.13962598  1
  C  C71  1  0.50000000  0.70932207  0.47394632  1
  C  C72  1  0.50000000  0.71033659  0.80529405  1
  C  C73  1  0.50000000  0.29029526  0.52800339  1
  C  C74  1  0.50000000  0.28905961  0.86207774  1
  C  C75  1  0.50000000  0.35016782  0.52962021  1
  C  C76  1  0.50000000  0.34949416  0.86074245  1
  C  C77  1  0.50000000  0.40995090  0.53012039  1
  C  C78  1  0.50000000  0.40951073  0.86025655  1
  C  C79  1  0.50000000  0.46985425  0.53050533  1
  C  C80  1  0.50000000  0.46950544  0.86005759  1
  C  C81  1  0.50000000  0.52971593  0.53080329  1
  C  C82  1  0.50000000  0.52972047  0.86025878  1
  C  C83  1  0.50000000  0.59103679  0.19302626  1
  C  C84  1  0.50000000  0.59026244  0.52851127  1
  C  C85  1  0.50000000  0.58987478  0.86044940  1
  C  C86  1  0.50000000  0.65004317  0.19407615  1
  C  C87  1  0.50000000  0.65002331  0.52857196  1
  C  C88  1  0.50000000  0.64994133  0.86038499  1
  C  C89  1  0.50000000  0.70907077  0.19334792  1
  C  C90  1  0.50000000  0.70980134  0.52854322  1
  C  C91  1  0.50000000  0.71032408  0.86121764  1
  C  C92  1  0.50000000  0.26095574  0.55435194  1
  C  C93  1  0.50000000  0.26025781  0.89154946  1
  C  C94  1  0.50000000  0.32010962  0.55564099  1
  C  C95  1  0.50000000  0.31947088  0.88871951  1
  C  C96  1  0.50000000  0.37990386  0.55636819  1
  C  C97  1  0.50000000  0.37952329  0.88780486  1
  C  C98  1  0.50000000  0.43978301  0.55668798  1
  C  C99  1  0.50000000  0.43962521  0.88746380  1
  C  C100  1  0.50000000  0.49959977  0.55720136  1
  C  C101  1  0.50000000  0.49967394  0.88723681  1
  C  C102  1  0.50000000  0.55946983  0.55641710  1
  C  C103  1  0.50000000  0.55980786  0.88788950  1
  C  C104  1  0.50000000  0.61991454  0.22175997  1
  C  C105  1  0.50000000  0.61999934  0.55644590  1
  C  C106  1  0.50000000  0.62005457  0.88796302  1
  C  C107  1  0.50000000  0.68010455  0.22182195  1
  C  C108  1  0.50000000  0.67995888  0.55655937  1
  C  C109  1  0.50000000  0.68018518  0.88818768  1
  C  C110  1  0.50000000  0.73952812  0.55640170  1
  C  C111  1  0.50000000  0.73965452  0.89030220  1
  C  C112  1  0.50000000  0.26024650  0.60859915  1
  C  C113  1  0.50000000  0.26096991  0.94579687  1
  C  C114  1  0.50000000  0.31947385  0.61137109  1
  C  C115  1  0.50000000  0.32010276  0.94446195  1
  C  C116  1  0.50000000  0.37952812  0.61225577  1
  C  C117  1  0.50000000  0.37989632  0.94368529  1
  C  C118  1  0.50000000  0.43963035  0.61255726  1
  C  C119  1  0.50000000  0.43978400  0.94330973  1
  C  C120  1  0.50000000  0.49967497  0.61273312  1
  C  C121  1  0.50000000  0.49960652  0.94272823  1
  C  C122  1  0.50000000  0.55981090  0.61201913  1
  C  C123  1  0.50000000  0.55947720  0.94348260  1
  C  C124  1  0.50000000  0.61990362  0.27823839  1
  C  C125  1  0.50000000  0.62005260  0.61196607  1
  C  C126  1  0.50000000  0.62001693  0.94347897  1
  C  C127  1  0.50000000  0.68009876  0.27819727  1
  C  C128  1  0.50000000  0.68019823  0.61176157  1
  C  C129  1  0.50000000  0.67996275  0.94340011  1
  C  C130  1  0.50000000  0.73967241  0.60958788  1
  C  C131  1  0.50000000  0.73952649  0.94349011  1
  H  H132  1  0.50000000  0.23651287  0.70332382  1
  H  H133  1  0.50000000  0.76304289  0.70344808  1
  H  H134  1  0.50000000  0.23655202  0.79681502  1
  H  H135  1  0.50000000  0.76300817  0.79662180  1
  H  H136  1  0.50000000  0.23804227  0.53272108  1
  H  H137  1  0.50000000  0.23652223  0.87248989  1
  H  H138  1  0.50000000  0.76249988  0.53482061  1
  H  H139  1  0.50000000  0.76312106  0.87045125  1
  H  H140  1  0.50000000  0.23653940  0.62777211  1
  H  H141  1  0.50000000  0.23806424  0.96745663  1
  H  H142  1  0.50000000  0.76312754  0.62946692  1
  H  H143  1  0.50000000  0.76255094  0.96488762  1
  H  H144  1  0.50000000  0.29096306  0.01450841  1
  H  H145  1  0.50000000  0.35043834  0.01280452  1
  H  H146  1  0.50000000  0.40995807  0.01223090  1
  H  H147  1  0.50000000  0.46999802  0.01176333  1
  H  H148  1  0.50000000  0.52869629  0.01128108  1
  H  H149  1  0.50000000  0.56747200  0.28752244  1
  H  H150  1  0.50000000  0.73248367  0.28669259  1
  H  H151  1  0.50000000  0.56834714  0.04651566  1
  H  H152  1  0.50000000  0.56767853  0.38052434  1
  H  H153  1  0.50000000  0.73291921  0.04555448  1
  H  H154  1  0.50000000  0.73267804  0.38005761  1
  H  H155  1  0.50000000  0.56766270  0.11950287  1
  H  H156  1  0.50000000  0.56840878  0.45313745  1
  H  H157  1  0.50000000  0.73272749  0.12011779  1
  H  H158  1  0.50000000  0.73291029  0.45441512  1
  H  H159  1  0.50000000  0.29095610  0.48568300  1
  H  H160  1  0.50000000  0.35046223  0.48725696  1
  H  H161  1  0.50000000  0.40995451  0.48774356  1
  H  H162  1  0.50000000  0.46996032  0.48812402  1
  H  H163  1  0.50000000  0.52867502  0.48856548  1
  H  H164  1  0.50000000  0.56750810  0.21266997  1
  H  H165  1  0.50000000  0.73251148  0.21321561  1
