# generated using pymatgen
data_H17C66
_symmetry_space_group_name_H-M   'P 1'
_cell_length_a   10.00000000
_cell_length_b   41.10890000
_cell_length_c   25.82417635
_cell_angle_alpha   90.00000000
_cell_angle_beta   90.00000000
_cell_angle_gamma   90.00000000
_symmetry_Int_Tables_number   1
_chemical_formula_structural   H17C66
_chemical_formula_sum   'H34 C132'
_cell_volume   10616.03483054
_cell_formula_units_Z   2
loop_
 _symmetry_equiv_pos_site_id
 _symmetry_equiv_pos_as_xyz
  1  'x, y, z'
loop_
 _atom_site_type_symbol
 _atom_site_label
 _atom_site_symmetry_multiplicity
 _atom_site_fract_x
 _atom_site_fract_y
 _atom_site_fract_z
 _atom_site_occupancy
  C  C0  1  0.50000000  0.28889533  0.63779638  1
  C  C1  1  0.50000000  0.29013936  0.97254513  1
  C  C2  1  0.50000000  0.34930670  0.63912367  1
  C  C3  1  0.50000000  0.35006738  0.97087449  1
  C  C4  1  0.50000000  0.40936125  0.63979992  1
  C  C5  1  0.50000000  0.40990756  0.97001825  1
  C  C6  1  0.50000000  0.46953672  0.63959425  1
  C  C7  1  0.50000000  0.46962455  0.96940120  1
  C  C8  1  0.50000000  0.53063900  0.30692741  1
  C  C9  1  0.50000000  0.52967187  0.63922161  1
  C  C10  1  0.50000000  0.53011547  0.97194496  1
  C  C11  1  0.50000000  0.58993909  0.30573422  1
  C  C12  1  0.50000000  0.59012547  0.63927311  1
  C  C13  1  0.50000000  0.59009889  0.97162001  1
  C  C14  1  0.50000000  0.64923682  0.30686216  1
  C  C15  1  0.50000000  0.65042506  0.63930533  1
  C  C16  1  0.50000000  0.65001167  0.97202643  1
  C  C17  1  0.50000000  0.71091201  0.63861717  1
  C  C18  1  0.50000000  0.71082842  0.97031373  1
  C  C19  1  0.50000000  0.28887637  0.69435320  1
  C  C20  1  0.50000000  0.34917858  0.69468942  1
  C  C21  1  0.50000000  0.40929954  0.69503353  1
  C  C22  1  0.50000000  0.46956155  0.69496735  1
  C  C23  1  0.50000000  0.53101290  0.02586168  1
  C  C24  1  0.50000000  0.53067894  0.36033785  1
  C  C25  1  0.50000000  0.52979896  0.69472036  1
  C  C26  1  0.50000000  0.59003877  0.02707324  1
  C  C27  1  0.50000000  0.58996814  0.36157151  1
  C  C28  1  0.50000000  0.59016579  0.69471318  1
  C  C29  1  0.50000000  0.64904419  0.02603037  1
  C  C30  1  0.50000000  0.64924983  0.36028773  1
  C  C31  1  0.50000000  0.65035651  0.69433179  1
  C  C32  1  0.50000000  0.71069338  0.69478978  1
  C  C33  1  0.50000000  0.25982293  0.72318349  1
  C  C34  1  0.50000000  0.31888030  0.72219327  1
  C  C35  1  0.50000000  0.37904620  0.72225444  1
  C  C36  1  0.50000000  0.43946497  0.72232847  1
  C  C37  1  0.50000000  0.49974198  0.72234686  1
  C  C38  1  0.50000000  0.55994472  0.05469863  1
  C  C39  1  0.50000000  0.55986403  0.38934932  1
  C  C40  1  0.50000000  0.55990063  0.72237420  1
  C  C41  1  0.50000000  0.62007122  0.05472170  1
  C  C42  1  0.50000000  0.62007571  0.38924797  1
  C  C43  1  0.50000000  0.62020556  0.72218030  1
  C  C44  1  0.50000000  0.68070318  0.72222542  1
  C  C45  1  0.50000000  0.74004645  0.72335748  1
  C  C46  1  0.50000000  0.25983677  0.77686905  1
  C  C47  1  0.50000000  0.31888791  0.77784317  1
  C  C48  1  0.50000000  0.37904823  0.77776794  1
  C  C49  1  0.50000000  0.43946046  0.77769182  1
  C  C50  1  0.50000000  0.49973820  0.77765532  1
  C  C51  1  0.50000000  0.55985616  0.11065080  1
  C  C52  1  0.50000000  0.55994957  0.44529917  1
  C  C53  1  0.50000000  0.55989945  0.77760462  1
  C  C54  1  0.50000000  0.62007851  0.11075565  1
  C  C55  1  0.50000000  0.62005819  0.44528582  1
  C  C56  1  0.50000000  0.62020521  0.77779579  1
  C  C57  1  0.50000000  0.68069883  0.77773843  1
  C  C58  1  0.50000000  0.74003354  0.77663700  1
  C  C59  1  0.50000000  0.28888612  0.80570422  1
  C  C60  1  0.50000000  0.34918769  0.80535028  1
  C  C61  1  0.50000000  0.40929674  0.80499417  1
  C  C62  1  0.50000000  0.46955649  0.80504161  1
  C  C63  1  0.50000000  0.53067080  0.13969836  1
  C  C64  1  0.50000000  0.53099330  0.47408166  1
  C  C65  1  0.50000000  0.52979805  0.80526342  1
  C  C66  1  0.50000000  0.58996888  0.13845903  1
  C  C67  1  0.50000000  0.59003302  0.47293330  1
  C  C68  1  0.50000000  0.59016586  0.80526108  1
  C  C69  1  0.50000000  0.64925103  0.13974317  1
  C  C70  1  0.50000000  0.64904632  0.47394235  1
  C  C71  1  0.50000000  0.65035611  0.80564090  1
  C  C72  1  0.50000000  0.71067630  0.80518345  1
  C  C73  1  0.50000000  0.29012627  0.52753752  1
  C  C74  1  0.50000000  0.28889090  0.86227102  1
  C  C75  1  0.50000000  0.35006447  0.52921432  1
  C  C76  1  0.50000000  0.34930749  0.86091691  1
  C  C77  1  0.50000000  0.40989664  0.52997992  1
  C  C78  1  0.50000000  0.40935012  0.86022465  1
  C  C79  1  0.50000000  0.46961218  0.53052225  1
  C  C80  1  0.50000000  0.46952987  0.86040160  1
  C  C81  1  0.50000000  0.53064681  0.19309527  1
  C  C82  1  0.50000000  0.53009561  0.52799232  1
  C  C83  1  0.50000000  0.52967658  0.86074927  1
  C  C84  1  0.50000000  0.58995210  0.19429205  1
  C  C85  1  0.50000000  0.59008749  0.52836444  1
  C  C86  1  0.50000000  0.59012818  0.86069053  1
  C  C87  1  0.50000000  0.64923349  0.19317432  1
  C  C88  1  0.50000000  0.65001098  0.52794256  1
  C  C89  1  0.50000000  0.65041773  0.86066289  1
  C  C90  1  0.50000000  0.71080310  0.52959611  1
  C  C91  1  0.50000000  0.71089285  0.86134485  1
  C  C92  1  0.50000000  0.26078993  0.55395563  1
  C  C93  1  0.50000000  0.26011476  0.89175799  1
  C  C94  1  0.50000000  0.31993765  0.55521282  1
  C  C95  1  0.50000000  0.31932915  0.88899398  1
  C  C96  1  0.50000000  0.37969251  0.55610727  1
  C  C97  1  0.50000000  0.37938605  0.88796588  1
  C  C98  1  0.50000000  0.43941872  0.55686714  1
  C  C99  1  0.50000000  0.43948774  0.88741190  1
  C  C100  1  0.50000000  0.49927469  0.55606528  1
  C  C101  1  0.50000000  0.49974131  0.88803941  1
  C  C102  1  0.50000000  0.55987240  0.22209299  1
  C  C103  1  0.50000000  0.56005902  0.55637947  1
  C  C104  1  0.50000000  0.56003446  0.88848008  1
  C  C105  1  0.50000000  0.62000975  0.22208782  1
  C  C106  1  0.50000000  0.62012202  0.55626817  1
  C  C107  1  0.50000000  0.62019133  0.88835871  1
  C  C108  1  0.50000000  0.68086820  0.55581041  1
  C  C109  1  0.50000000  0.68069102  0.88879814  1
  C  C110  1  0.50000000  0.74016353  0.55655498  1
  C  C111  1  0.50000000  0.74028727  0.88953437  1
  C  C112  1  0.50000000  0.26012093  0.60833806  1
  C  C113  1  0.50000000  0.26079996  0.94613692  1
  C  C114  1  0.50000000  0.31932538  0.61106060  1
  C  C115  1  0.50000000  0.31994612  0.94485103  1
  C  C116  1  0.50000000  0.37939112  0.61208389  1
  C  C117  1  0.50000000  0.37969050  0.94395128  1
  C  C118  1  0.50000000  0.43949563  0.61258369  1
  C  C119  1  0.50000000  0.43942050  0.94310967  1
  C  C120  1  0.50000000  0.49973887  0.61192281  1
  C  C121  1  0.50000000  0.49928692  0.94388173  1
  C  C122  1  0.50000000  0.55986431  0.27793780  1
  C  C123  1  0.50000000  0.56002592  0.61148205  1
  C  C124  1  0.50000000  0.56007836  0.94358115  1
  C  C125  1  0.50000000  0.62000698  0.27796158  1
  C  C126  1  0.50000000  0.62019376  0.61160867  1
  C  C127  1  0.50000000  0.62012596  0.94370226  1
  C  C128  1  0.50000000  0.68070258  0.61117250  1
  C  C129  1  0.50000000  0.68087446  0.94415191  1
  C  C130  1  0.50000000  0.74029486  0.61036855  1
  C  C131  1  0.50000000  0.74019085  0.94334054  1
  H  H132  1  0.50000000  0.23640259  0.70315688  1
  H  H133  1  0.50000000  0.76344650  0.70325206  1
  H  H134  1  0.50000000  0.23642276  0.79690691  1
  H  H135  1  0.50000000  0.76342069  0.79677438  1
  H  H136  1  0.50000000  0.23783894  0.53236260  1
  H  H137  1  0.50000000  0.23639620  0.87261398  1
  H  H138  1  0.50000000  0.76318329  0.53512060  1
  H  H139  1  0.50000000  0.76366019  0.86936177  1
  H  H140  1  0.50000000  0.23644056  0.62761133  1
  H  H141  1  0.50000000  0.23787621  0.96781694  1
  H  H142  1  0.50000000  0.76370620  0.63041157  1
  H  H143  1  0.50000000  0.76325199  0.96465726  1
  H  H144  1  0.50000000  0.29079117  0.01499080  1
  H  H145  1  0.50000000  0.35041105  0.01336701  1
  H  H146  1  0.50000000  0.41010563  0.01248230  1
  H  H147  1  0.50000000  0.46864051  0.01169206  1
  H  H148  1  0.50000000  0.50721408  0.28695882  1
  H  H149  1  0.50000000  0.67265494  0.28686459  1
  H  H150  1  0.50000000  0.71162539  0.01261603  1
  H  H151  1  0.50000000  0.50797758  0.04667856  1
  H  H152  1  0.50000000  0.50722230  0.38022633  1
  H  H153  1  0.50000000  0.67200365  0.04699602  1
  H  H154  1  0.50000000  0.67275202  0.38010793  1
  H  H155  1  0.50000000  0.50716325  0.11994314  1
  H  H156  1  0.50000000  0.50802393  0.45305453  1
  H  H157  1  0.50000000  0.67280519  0.12010683  1
  H  H158  1  0.50000000  0.67194250  0.45277795  1
  H  H159  1  0.50000000  0.29078638  0.48510161  1
  H  H160  1  0.50000000  0.35042702  0.48674324  1
  H  H161  1  0.50000000  0.41008066  0.48750046  1
  H  H162  1  0.50000000  0.46864461  0.48819343  1
  H  H163  1  0.50000000  0.50721635  0.21305517  1
  H  H164  1  0.50000000  0.67265389  0.21314275  1
  H  H165  1  0.50000000  0.71160429  0.48728275  1
