# generated using pymatgen
data_H3C11
_symmetry_space_group_name_H-M   'P 1'
_cell_length_a   10.00000000
_cell_length_b   41.10890000
_cell_length_c   26.08400148
_cell_angle_alpha   90.00000000
_cell_angle_beta   90.00000000
_cell_angle_gamma   90.00000000
_symmetry_Int_Tables_number   1
_chemical_formula_structural   H3C11
_chemical_formula_sum   'H36 C132'
_cell_volume   10722.84608521
_cell_formula_units_Z   12
loop_
 _symmetry_equiv_pos_site_id
 _symmetry_equiv_pos_as_xyz
  1  'x, y, z'
loop_
 _atom_site_type_symbol
 _atom_site_label
 _atom_site_symmetry_multiplicity
 _atom_site_fract_x
 _atom_site_fract_y
 _atom_site_fract_z
 _atom_site_occupancy
  C  C0  1  0.50000000  0.28332035  0.30646816  1
  C  C1  1  0.50000000  0.29168477  0.63912539  1
  C  C2  1  0.50000000  0.29005739  0.97118229  1
  C  C3  1  0.50000000  0.34321751  0.30439317  1
  C  C4  1  0.50000000  0.35154576  0.63935423  1
  C  C5  1  0.50000000  0.35073928  0.97384293  1
  C  C6  1  0.50000000  0.41137365  0.64038774  1
  C  C7  1  0.50000000  0.41243380  0.96592912  1
  C  C8  1  0.50000000  0.47197783  0.64154363  1
  C  C9  1  0.50000000  0.47164313  0.96683688  1
  C  C10  1  0.50000000  0.53202685  0.64077291  1
  C  C11  1  0.50000000  0.53166995  0.96795657  1
  C  C12  1  0.50000000  0.59197204  0.64041057  1
  C  C13  1  0.50000000  0.59167554  0.96824372  1
  C  C14  1  0.50000000  0.65193622  0.63994026  1
  C  C15  1  0.50000000  0.65162450  0.96862561  1
  C  C16  1  0.50000000  0.71228326  0.63887341  1
  C  C17  1  0.50000000  0.71173853  0.96958274  1
  C  C18  1  0.50000000  0.28806472  0.02651004  1
  C  C19  1  0.50000000  0.28439317  0.36227739  1
  C  C20  1  0.50000000  0.29168030  0.69482671  1
  C  C21  1  0.50000000  0.34837204  0.02936057  1
  C  C22  1  0.50000000  0.34392994  0.35881624  1
  C  C23  1  0.50000000  0.35154660  0.69451314  1
  C  C24  1  0.50000000  0.41134444  0.69533569  1
  C  C25  1  0.50000000  0.47183607  0.69611440  1
  C  C26  1  0.50000000  0.53206436  0.69555197  1
  C  C27  1  0.50000000  0.59209765  0.69524213  1
  C  C28  1  0.50000000  0.65208182  0.69501119  1
  C  C29  1  0.50000000  0.71231265  0.69476099  1
  C  C30  1  0.50000000  0.25792670  0.05378948  1
  C  C31  1  0.50000000  0.25611380  0.39360022  1
  C  C32  1  0.50000000  0.26248007  0.72351676  1
  C  C33  1  0.50000000  0.31723314  0.05574353  1
  C  C34  1  0.50000000  0.31505132  0.38880298  1
  C  C35  1  0.50000000  0.32157082  0.72238860  1
  C  C36  1  0.50000000  0.37564530  0.06316802  1
  C  C37  1  0.50000000  0.37384285  0.38494580  1
  C  C38  1  0.50000000  0.38137490  0.72251155  1
  C  C39  1  0.50000000  0.44154723  0.72271431  1
  C  C40  1  0.50000000  0.50199954  0.72279365  1
  C  C41  1  0.50000000  0.56209463  0.72257247  1
  C  C42  1  0.50000000  0.62224456  0.72236571  1
  C  C43  1  0.50000000  0.68233351  0.72227628  1
  C  C44  1  0.50000000  0.74140219  0.72316040  1
  C  C45  1  0.50000000  0.25610148  0.10667026  1
  C  C46  1  0.50000000  0.25797201  0.44645204  1
  C  C47  1  0.50000000  0.26244221  0.77648509  1
  C  C48  1  0.50000000  0.31504238  0.11142606  1
  C  C49  1  0.50000000  0.31726326  0.44446344  1
  C  C50  1  0.50000000  0.32154371  0.77773708  1
  C  C51  1  0.50000000  0.37382210  0.11523000  1
  C  C52  1  0.50000000  0.37567279  0.43701226  1
  C  C53  1  0.50000000  0.38136044  0.77765409  1
  C  C54  1  0.50000000  0.44154555  0.77741954  1
  C  C55  1  0.50000000  0.50199371  0.77728464  1
  C  C56  1  0.50000000  0.56209467  0.77742312  1
  C  C57  1  0.50000000  0.62226179  0.77744243  1
  C  C58  1  0.50000000  0.68236861  0.77736387  1
  C  C59  1  0.50000000  0.74143604  0.77625927  1
  C  C60  1  0.50000000  0.28439211  0.13796112  1
  C  C61  1  0.50000000  0.28811329  0.47368281  1
  C  C62  1  0.50000000  0.29161970  0.80526708  1
  C  C63  1  0.50000000  0.34391966  0.14137057  1
  C  C64  1  0.50000000  0.34840828  0.47080033  1
  C  C65  1  0.50000000  0.35150936  0.80562657  1
  C  C66  1  0.50000000  0.41133464  0.80480121  1
  C  C67  1  0.50000000  0.47183464  0.80400668  1
  C  C68  1  0.50000000  0.53206753  0.80449749  1
  C  C69  1  0.50000000  0.59212163  0.80464805  1
  C  C70  1  0.50000000  0.65212978  0.80469499  1
  C  C71  1  0.50000000  0.71239774  0.80477875  1
  C  C72  1  0.50000000  0.28331047  0.19377650  1
  C  C73  1  0.50000000  0.29013592  0.52898504  1
  C  C74  1  0.50000000  0.29159245  0.86098909  1
  C  C75  1  0.50000000  0.34321762  0.19581288  1
  C  C76  1  0.50000000  0.35079264  0.52629023  1
  C  C77  1  0.50000000  0.35149513  0.86077093  1
  C  C78  1  0.50000000  0.41249007  0.53411285  1
  C  C79  1  0.50000000  0.41136431  0.85974588  1
  C  C80  1  0.50000000  0.47165501  0.53336890  1
  C  C81  1  0.50000000  0.47198531  0.85858255  1
  C  C82  1  0.50000000  0.53159707  0.53210645  1
  C  C83  1  0.50000000  0.53203857  0.85928964  1
  C  C84  1  0.50000000  0.59153840  0.53155420  1
  C  C85  1  0.50000000  0.59201722  0.85947536  1
  C  C86  1  0.50000000  0.65147032  0.53096092  1
  C  C87  1  0.50000000  0.65202347  0.85974396  1
  C  C88  1  0.50000000  0.71156453  0.52990029  1
  C  C89  1  0.50000000  0.71242454  0.86067204  1
  C  C90  1  0.50000000  0.25413173  0.22353508  1
  C  C91  1  0.50000000  0.26127102  0.55888313  1
  C  C92  1  0.50000000  0.26184172  0.88871633  1
  C  C93  1  0.50000000  0.31297103  0.22250684  1
  C  C94  1  0.50000000  0.32101577  0.55527347  1
  C  C95  1  0.50000000  0.32123515  0.88901109  1
  C  C96  1  0.50000000  0.37273668  0.22400998  1
  C  C97  1  0.50000000  0.38163085  0.55587932  1
  C  C98  1  0.50000000  0.38129425  0.88816456  1
  C  C99  1  0.50000000  0.44230060  0.56059003  1
  C  C100  1  0.50000000  0.44187914  0.88515085  1
  C  C101  1  0.50000000  0.50185547  0.55876975  1
  C  C102  1  0.50000000  0.50184873  0.88607822  1
  C  C103  1  0.50000000  0.56168426  0.55796917  1
  C  C104  1  0.50000000  0.56192271  0.88652806  1
  C  C105  1  0.50000000  0.62165252  0.55746976  1
  C  C106  1  0.50000000  0.62205136  0.88674229  1
  C  C107  1  0.50000000  0.68152838  0.55690330  1
  C  C108  1  0.50000000  0.68210802  0.88735298  1
  C  C109  1  0.50000000  0.74079162  0.55640142  1
  C  C110  1  0.50000000  0.74140188  0.88932160  1
  C  C111  1  0.50000000  0.25412679  0.27675316  1
  C  C112  1  0.50000000  0.26194140  0.61145190  1
  C  C113  1  0.50000000  0.26117812  0.94129203  1
  C  C114  1  0.50000000  0.31296986  0.27771981  1
  C  C115  1  0.50000000  0.32131240  0.61110846  1
  C  C116  1  0.50000000  0.32094917  0.94486541  1
  C  C117  1  0.50000000  0.37274893  0.27625600  1
  C  C118  1  0.50000000  0.38133460  0.61194411  1
  C  C119  1  0.50000000  0.38157640  0.94420280  1
  C  C120  1  0.50000000  0.44188937  0.61498864  1
  C  C121  1  0.50000000  0.44228630  0.93955353  1
  C  C122  1  0.50000000  0.50183560  0.61405480  1
  C  C123  1  0.50000000  0.50186599  0.94140604  1
  C  C124  1  0.50000000  0.56187565  0.61343540  1
  C  C125  1  0.50000000  0.56174983  0.94199023  1
  C  C126  1  0.50000000  0.62195889  0.61299622  1
  C  C127  1  0.50000000  0.62176662  0.94222642  1
  C  C128  1  0.50000000  0.68197208  0.61223889  1
  C  C129  1  0.50000000  0.68168316  0.94266062  1
  C  C130  1  0.50000000  0.74121809  0.61015606  1
  C  C131  1  0.50000000  0.74097496  0.94309739  1
  H  H132  1  0.50000000  0.23497220  0.03261203  1
  H  H133  1  0.50000000  0.23202033  0.37580849  1
  H  H134  1  0.50000000  0.23901375  0.70387528  1
  H  H135  1  0.50000000  0.76482733  0.70340718  1
  H  H136  1  0.50000000  0.23201736  0.12451266  1
  H  H137  1  0.50000000  0.23507685  0.46774279  1
  H  H138  1  0.50000000  0.23890802  0.79593197  1
  H  H139  1  0.50000000  0.76490843  0.79588696  1
  H  H140  1  0.50000000  0.23044441  0.20432632  1
  H  H141  1  0.50000000  0.23758489  0.53987345  1
  H  H142  1  0.50000000  0.23866070  0.86826546  1
  H  H143  1  0.50000000  0.76388767  0.53541613  1
  H  H144  1  0.50000000  0.76492033  0.86976012  1
  H  H145  1  0.50000000  0.23047334  0.29608433  1
  H  H146  1  0.50000000  0.23883185  0.63209916  1
  H  H147  1  0.50000000  0.23745540  0.96022838  1
  H  H148  1  0.50000000  0.76475951  0.62961992  1
  H  H149  1  0.50000000  0.76401910  0.96421372  1
  H  H150  1  0.50000000  0.41657268  0.00639740  1
  H  H151  1  0.50000000  0.47107487  0.00890789  1
  H  H152  1  0.50000000  0.53139771  0.01002754  1
  H  H153  1  0.50000000  0.59154020  0.01026703  1
  H  H154  1  0.50000000  0.65142575  0.01065631  1
  H  H155  1  0.50000000  0.71156026  0.01158828  1
  H  H156  1  0.50000000  0.40029274  0.05009475  1
  H  H157  1  0.50000000  0.39683794  0.36408814  1
  H  H158  1  0.50000000  0.39679668  0.13615625  1
  H  H159  1  0.50000000  0.40033191  0.45004033  1
  H  H160  1  0.50000000  0.41666635  0.49362102  1
  H  H161  1  0.50000000  0.47116112  0.49135265  1
  H  H162  1  0.50000000  0.53126515  0.49006004  1
  H  H163  1  0.50000000  0.59133973  0.48951200  1
  H  H164  1  0.50000000  0.65131034  0.48888442  1
  H  H165  1  0.50000000  0.71135784  0.48786001  1
  H  H166  1  0.50000000  0.39615599  0.20441743  1
  H  H167  1  0.50000000  0.39612534  0.29599655  1
