# generated using pymatgen
data_H17C60
_symmetry_space_group_name_H-M   'P 1'
_cell_length_a   20.00000000
_cell_length_b   40.19450000
_cell_length_c   26.31693012
_cell_angle_alpha   90.00000000
_cell_angle_beta   90.00000000
_cell_angle_gamma   90.00000000
_symmetry_Int_Tables_number   1
_chemical_formula_structural   H17C60
_chemical_formula_sum   'H34 C120'
_cell_volume   21155.91695305
_cell_formula_units_Z   2
loop_
 _symmetry_equiv_pos_site_id
 _symmetry_equiv_pos_as_xyz
  1  'x, y, z'
loop_
 _atom_site_type_symbol
 _atom_site_label
 _atom_site_symmetry_multiplicity
 _atom_site_fract_x
 _atom_site_fract_y
 _atom_site_fract_z
 _atom_site_occupancy
  C  C0  1  0.50000000  0.28487984  0.61758249  1
  C  C1  1  0.50000000  0.28702385  0.77604426  1
  C  C2  1  0.50000000  0.28327097  0.93452797  1
  C  C3  1  0.50000000  0.31610128  0.64133448  1
  C  C4  1  0.50000000  0.31688002  0.80369460  1
  C  C5  1  0.50000000  0.31242117  0.96262262  1
  C  C6  1  0.50000000  0.28326756  0.56544884  1
  C  C7  1  0.50000000  0.28701578  0.72393678  1
  C  C8  1  0.50000000  0.28487988  0.88237616  1
  C  C9  1  0.50000000  0.34765201  0.11202093  1
  C  C10  1  0.50000000  0.34633802  0.61248972  1
  C  C11  1  0.50000000  0.34689810  0.27601494  1
  C  C12  1  0.50000000  0.34755729  0.77727306  1
  C  C13  1  0.50000000  0.34779484  0.43962706  1
  C  C14  1  0.50000000  0.34500816  0.94221024  1
  C  C15  1  0.50000000  0.37724480  0.14035052  1
  C  C16  1  0.50000000  0.37766636  0.63918857  1
  C  C17  1  0.50000000  0.37690604  0.30472616  1
  C  C18  1  0.50000000  0.37799733  0.80550493  1
  C  C19  1  0.50000000  0.37658235  0.47173661  1
  C  C20  1  0.50000000  0.37613986  0.97250892  1
  C  C21  1  0.50000000  0.31239258  0.53727208  1
  C  C22  1  0.50000000  0.31687604  0.69623195  1
  C  C23  1  0.50000000  0.31609830  0.85858060  1
  C  C24  1  0.50000000  0.34789853  0.06007280  1
  C  C25  1  0.50000000  0.34497550  0.55767952  1
  C  C26  1  0.50000000  0.34690819  0.22368235  1
  C  C27  1  0.50000000  0.34755282  0.72261911  1
  C  C28  1  0.50000000  0.34760456  0.38765059  1
  C  C29  1  0.50000000  0.34635246  0.88738902  1
  C  C30  1  0.50000000  0.40743398  0.11167558  1
  C  C31  1  0.50000000  0.40784825  0.61087666  1
  C  C32  1  0.50000000  0.40739491  0.27717470  1
  C  C33  1  0.50000000  0.40828853  0.77758620  1
  C  C34  1  0.50000000  0.40749719  0.44402857  1
  C  C35  1  0.50000000  0.40756601  0.94519326  1
  C  C36  1  0.50000000  0.43752100  0.14062627  1
  C  C37  1  0.50000000  0.43855260  0.63941710  1
  C  C38  1  0.50000000  0.43789473  0.30466269  1
  C  C39  1  0.50000000  0.43875407  0.80528000  1
  C  C40  1  0.50000000  0.43849898  0.47164670  1
  C  C41  1  0.50000000  0.43883821  0.97263158  1
  C  C42  1  0.50000000  0.37669077  0.02804474  1
  C  C43  1  0.50000000  0.37607644  0.52730656  1
  C  C44  1  0.50000000  0.37693807  0.19501258  1
  C  C45  1  0.50000000  0.37798152  0.69435246  1
  C  C46  1  0.50000000  0.37720808  0.35938155  1
  C  C47  1  0.50000000  0.37768776  0.86066875  1
  C  C48  1  0.50000000  0.40759336  0.05576966  1
  C  C49  1  0.50000000  0.40750780  0.55461825  1
  C  C50  1  0.50000000  0.40741287  0.22259191  1
  C  C51  1  0.50000000  0.40828464  0.72223313  1
  C  C52  1  0.50000000  0.40737327  0.38812784  1
  C  C53  1  0.50000000  0.40788420  0.88894423  1
  C  C54  1  0.50000000  0.46716620  0.11259423  1
  C  C55  1  0.50000000  0.46931986  0.61295516  1
  C  C56  1  0.50000000  0.46798751  0.27606174  1
  C  C57  1  0.50000000  0.46931048  0.77725243  1
  C  C58  1  0.50000000  0.46720246  0.43913355  1
  C  C59  1  0.50000000  0.46986165  0.94208175  1
  C  C60  1  0.50000000  0.50005279  0.64129250  1
  C  C61  1  0.50000000  0.50009074  0.80399372  1
  C  C62  1  0.50000000  0.50150546  0.96317026  1
  C  C63  1  0.50000000  0.43859644  0.02815489  1
  C  C64  1  0.50000000  0.43877139  0.52717184  1
  C  C65  1  0.50000000  0.43793420  0.19515414  1
  C  C66  1  0.50000000  0.43873979  0.69452371  1
  C  C67  1  0.50000000  0.43746261  0.35918425  1
  C  C68  1  0.50000000  0.43858253  0.86039383  1
  C  C69  1  0.50000000  0.46728644  0.06068931  1
  C  C70  1  0.50000000  0.46979520  0.55771340  1
  C  C71  1  0.50000000  0.46802038  0.22377003  1
  C  C72  1  0.50000000  0.46930614  0.72250671  1
  C  C73  1  0.50000000  0.46710597  0.38723953  1
  C  C74  1  0.50000000  0.46936580  0.88682667  1
  C  C75  1  0.50000000  0.53142020  0.61645533  1
  C  C76  1  0.50000000  0.53102177  0.77698716  1
  C  C77  1  0.50000000  0.53188235  0.93710492  1
  C  C78  1  0.50000000  0.56222469  0.64264198  1
  C  C79  1  0.50000000  0.56211974  0.80320361  1
  C  C80  1  0.50000000  0.56174555  0.96438815  1
  C  C81  1  0.50000000  0.50144194  0.53665725  1
  C  C82  1  0.50000000  0.50007828  0.69575481  1
  C  C83  1  0.50000000  0.50007274  0.85845197  1
  C  C84  1  0.50000000  0.53184917  0.56262342  1
  C  C85  1  0.50000000  0.53101905  0.72274834  1
  C  C86  1  0.50000000  0.53144106  0.88328833  1
  C  C87  1  0.50000000  0.59279161  0.61519493  1
  C  C88  1  0.50000000  0.59314874  0.77694128  1
  C  C89  1  0.50000000  0.59262827  0.93935060  1
  C  C90  1  0.50000000  0.62363086  0.64138962  1
  C  C91  1  0.50000000  0.62375782  0.80391692  1
  C  C92  1  0.50000000  0.62285181  0.96605755  1
  C  C93  1  0.50000000  0.56169089  0.53524201  1
  C  C94  1  0.50000000  0.56211100  0.69653229  1
  C  C95  1  0.50000000  0.56225055  0.85708994  1
  C  C96  1  0.50000000  0.59256049  0.56035115  1
  C  C97  1  0.50000000  0.59314360  0.72277815  1
  C  C98  1  0.50000000  0.59283345  0.88451820  1
  C  C99  1  0.50000000  0.65422696  0.61373165  1
  C  C100  1  0.50000000  0.65476013  0.77712626  1
  C  C101  1  0.50000000  0.65364120  0.94076703  1
  C  C102  1  0.50000000  0.68540685  0.63978047  1
  C  C103  1  0.50000000  0.68549671  0.80445055  1
  C  C104  1  0.50000000  0.68410991  0.96810446  1
  C  C105  1  0.50000000  0.62279166  0.53367619  1
  C  C106  1  0.50000000  0.62374272  0.69578962  1
  C  C107  1  0.50000000  0.62366347  0.85830777  1
  C  C108  1  0.50000000  0.65358923  0.55894335  1
  C  C109  1  0.50000000  0.65475286  0.72258323  1
  C  C110  1  0.50000000  0.65425875  0.88598181  1
  C  C111  1  0.50000000  0.71480288  0.61080733  1
  C  C112  1  0.50000000  0.71521552  0.77620559  1
  C  C113  1  0.50000000  0.71416122  0.94233649  1
  C  C114  1  0.50000000  0.68405775  0.53159877  1
  C  C115  1  0.50000000  0.68548529  0.69526139  1
  C  C116  1  0.50000000  0.68544495  0.85994438  1
  C  C117  1  0.50000000  0.71409517  0.55741020  1
  C  C118  1  0.50000000  0.71521181  0.72350584  1
  C  C119  1  0.50000000  0.71484579  0.88893581  1
  H  H120  1  0.50000000  0.26182231  0.63935134  1
  H  H121  1  0.50000000  0.26297292  0.79515137  1
  H  H122  1  0.50000000  0.25929490  0.95439560  1
  H  H123  1  0.50000000  0.25923147  0.54577278  1
  H  H124  1  0.50000000  0.26293368  0.70497641  1
  H  H125  1  0.50000000  0.26179839  0.86065862  1
  H  H126  1  0.50000000  0.73901980  0.62973591  1
  H  H127  1  0.50000000  0.73916610  0.79591062  1
  H  H128  1  0.50000000  0.73764594  0.96358059  1
  H  H129  1  0.50000000  0.73761051  0.53629647  1
  H  H130  1  0.50000000  0.73918530  0.70385852  1
  H  H131  1  0.50000000  0.73907356  0.87005413  1
  H  H132  1  0.50000000  0.68326609  0.48994357  1
  H  H133  1  0.50000000  0.30717574  0.00241342  1
  H  H134  1  0.50000000  0.32336602  0.13067070  1
  H  H135  1  0.50000000  0.32291298  0.29553732  1
  H  H136  1  0.50000000  0.32299945  0.45418766  1
  H  H137  1  0.50000000  0.30722092  0.49746002  1
  H  H138  1  0.50000000  0.32317407  0.04526855  1
  H  H139  1  0.50000000  0.32294678  0.20411304  1
  H  H140  1  0.50000000  0.32337745  0.36879503  1
  H  H141  1  0.50000000  0.62239948  0.00771262  1
  H  H142  1  0.50000000  0.68329689  0.00975749  1
  H  H143  1  0.50000000  0.62232091  0.49204048  1
  H  H144  1  0.50000000  0.56118147  0.00604944  1
  H  H145  1  0.50000000  0.56116355  0.49352425  1
  H  H146  1  0.50000000  0.49135405  0.13154564  1
  H  H147  1  0.50000000  0.49199594  0.29556397  1
  H  H148  1  0.50000000  0.49228835  0.45262220  1
  H  H149  1  0.50000000  0.50602016  0.00301224  1
  H  H150  1  0.50000000  0.49241071  0.04732700  1
  H  H151  1  0.50000000  0.49205030  0.20429877  1
  H  H152  1  0.50000000  0.49125943  0.36819477  1
  H  H153  1  0.50000000  0.50598411  0.49686386  1
