# generated using pymatgen
data_H4C15
_symmetry_space_group_name_H-M   'P 1'
_cell_length_a   20.00000000
_cell_length_b   40.19450000
_cell_length_c   25.81305047
_cell_angle_alpha   90.00000000
_cell_angle_beta   90.00000000
_cell_angle_gamma   90.00000000
_symmetry_Int_Tables_number   1
_chemical_formula_structural   H4C15
_chemical_formula_sum   'H32 C120'
_cell_volume   20750.85314563
_cell_formula_units_Z   8
loop_
 _symmetry_equiv_pos_site_id
 _symmetry_equiv_pos_as_xyz
  1  'x, y, z'
loop_
 _atom_site_type_symbol
 _atom_site_label
 _atom_site_symmetry_multiplicity
 _atom_site_fract_x
 _atom_site_fract_y
 _atom_site_fract_z
 _atom_site_occupancy
  C  C0  1  0.50000000  0.28510225  0.60955829  1
  C  C1  1  0.50000000  0.28510643  0.77679539  1
  C  C2  1  0.50000000  0.28574887  0.94481502  1
  C  C3  1  0.50000000  0.31472659  0.63866710  1
  C  C4  1  0.50000000  0.31499993  0.80521597  1
  C  C5  1  0.50000000  0.31582880  0.97127928  1
  C  C6  1  0.50000000  0.28548736  0.55534926  1
  C  C7  1  0.50000000  0.28507663  0.72338086  1
  C  C8  1  0.50000000  0.28532074  0.89061950  1
  C  C9  1  0.50000000  0.34571633  0.61187795  1
  C  C10  1  0.50000000  0.34569574  0.77771967  1
  C  C11  1  0.50000000  0.34608852  0.94346065  1
  C  C12  1  0.50000000  0.37663512  0.63933515  1
  C  C13  1  0.50000000  0.37678497  0.80517945  1
  C  C14  1  0.50000000  0.37692751  0.96966385  1
  C  C15  1  0.50000000  0.31556700  0.52887354  1
  C  C16  1  0.50000000  0.31492673  0.69484578  1
  C  C17  1  0.50000000  0.31488323  0.86137244  1
  C  C18  1  0.50000000  0.34591134  0.55647634  1
  C  C19  1  0.50000000  0.34566353  0.72224524  1
  C  C20  1  0.50000000  0.34588220  0.88807286  1
  C  C21  1  0.50000000  0.40737130  0.61169028  1
  C  C22  1  0.50000000  0.40742294  0.77775264  1
  C  C23  1  0.50000000  0.40715368  0.94396484  1
  C  C24  1  0.50000000  0.43917381  0.13976322  1
  C  C25  1  0.50000000  0.43812619  0.63921037  1
  C  C26  1  0.50000000  0.43920122  0.30693262  1
  C  C27  1  0.50000000  0.43822588  0.80547852  1
  C  C28  1  0.50000000  0.43953486  0.47397455  1
  C  C29  1  0.50000000  0.43871123  0.97209194  1
  C  C30  1  0.50000000  0.37676596  0.53017591  1
  C  C31  1  0.50000000  0.37671280  0.69468960  1
  C  C32  1  0.50000000  0.37675789  0.86053091  1
  C  C33  1  0.50000000  0.40703281  0.55586130  1
  C  C34  1  0.50000000  0.40738583  0.72206386  1
  C  C35  1  0.50000000  0.40747112  0.88815469  1
  C  C36  1  0.50000000  0.46916222  0.11066926  1
  C  C37  1  0.50000000  0.46924187  0.61130157  1
  C  C38  1  0.50000000  0.46921111  0.27785230  1
  C  C39  1  0.50000000  0.46923311  0.77752729  1
  C  C40  1  0.50000000  0.46927110  0.44519258  1
  C  C41  1  0.50000000  0.46935873  0.94365520  1
  C  C42  1  0.50000000  0.50000369  0.13842939  1
  C  C43  1  0.50000000  0.49999164  0.63895819  1
  C  C44  1  0.50000000  0.49999172  0.30569591  1
  C  C45  1  0.50000000  0.50000411  0.80518016  1
  C  C46  1  0.50000000  0.49999301  0.47288000  1
  C  C47  1  0.50000000  0.50001796  0.97167635  1
  C  C48  1  0.50000000  0.43955673  0.02588406  1
  C  C49  1  0.50000000  0.43861534  0.52775224  1
  C  C50  1  0.50000000  0.43918724  0.19307682  1
  C  C51  1  0.50000000  0.43818047  0.69433405  1
  C  C52  1  0.50000000  0.43920404  0.36025522  1
  C  C53  1  0.50000000  0.43819521  0.86060431  1
  C  C54  1  0.50000000  0.46923706  0.05481101  1
  C  C55  1  0.50000000  0.46927784  0.55620654  1
  C  C56  1  0.50000000  0.46920840  0.22211187  1
  C  C57  1  0.50000000  0.46921327  0.72225342  1
  C  C58  1  0.50000000  0.46919249  0.38932783  1
  C  C59  1  0.50000000  0.46929716  0.88853217  1
  C  C60  1  0.50000000  0.53085335  0.11066282  1
  C  C61  1  0.50000000  0.53073989  0.61130989  1
  C  C62  1  0.50000000  0.53077106  0.27786685  1
  C  C63  1  0.50000000  0.53077427  0.77753584  1
  C  C64  1  0.50000000  0.53071355  0.44518821  1
  C  C65  1  0.50000000  0.53067872  0.94365225  1
  C  C66  1  0.50000000  0.56081847  0.13977783  1
  C  C67  1  0.50000000  0.56185906  0.63921775  1
  C  C68  1  0.50000000  0.56079709  0.30695680  1
  C  C69  1  0.50000000  0.56178265  0.80548188  1
  C  C70  1  0.50000000  0.56044258  0.47399036  1
  C  C71  1  0.50000000  0.56131087  0.97209583  1
  C  C72  1  0.50000000  0.50000748  0.02715508  1
  C  C73  1  0.50000000  0.49998655  0.52831306  1
  C  C74  1  0.50000000  0.49999580  0.19426690  1
  C  C75  1  0.50000000  0.49999733  0.69462005  1
  C  C76  1  0.50000000  0.49999551  0.36152495  1
  C  C77  1  0.50000000  0.50000629  0.86084410  1
  C  C78  1  0.50000000  0.53077012  0.05480636  1
  C  C79  1  0.50000000  0.53069414  0.55621601  1
  C  C80  1  0.50000000  0.53077547  0.22210585  1
  C  C81  1  0.50000000  0.53078464  0.72226132  1
  C  C82  1  0.50000000  0.53080446  0.38931996  1
  C  C83  1  0.50000000  0.53071962  0.88852538  1
  C  C84  1  0.50000000  0.59261211  0.61169499  1
  C  C85  1  0.50000000  0.59258676  0.77775464  1
  C  C86  1  0.50000000  0.59285889  0.94395729  1
  C  C87  1  0.50000000  0.62335333  0.63932940  1
  C  C88  1  0.50000000  0.62323560  0.80517380  1
  C  C89  1  0.50000000  0.62309394  0.96965600  1
  C  C90  1  0.50000000  0.56045092  0.02589888  1
  C  C91  1  0.50000000  0.56135618  0.52777307  1
  C  C92  1  0.50000000  0.56081077  0.19306383  1
  C  C93  1  0.50000000  0.56181511  0.69433882  1
  C  C94  1  0.50000000  0.56079235  0.36025291  1
  C  C95  1  0.50000000  0.56181449  0.86059822  1
  C  C96  1  0.50000000  0.59294029  0.55586966  1
  C  C97  1  0.50000000  0.59261445  0.72206429  1
  C  C98  1  0.50000000  0.59254240  0.88814218  1
  C  C99  1  0.50000000  0.65426587  0.61185873  1
  C  C100  1  0.50000000  0.65432414  0.77769719  1
  C  C101  1  0.50000000  0.65394752  0.94347403  1
  C  C102  1  0.50000000  0.68526185  0.63863090  1
  C  C103  1  0.50000000  0.68502485  0.80518282  1
  C  C104  1  0.50000000  0.68422721  0.97126309  1
  C  C105  1  0.50000000  0.62320072  0.53016934  1
  C  C106  1  0.50000000  0.62328729  0.69468234  1
  C  C107  1  0.50000000  0.62326841  0.86053104  1
  C  C108  1  0.50000000  0.65405703  0.55645938  1
  C  C109  1  0.50000000  0.65434246  0.72222241  1
  C  C110  1  0.50000000  0.65415144  0.88807621  1
  C  C111  1  0.50000000  0.71487803  0.60950513  1
  C  C112  1  0.50000000  0.71491376  0.77674919  1
  C  C113  1  0.50000000  0.71430668  0.94477006  1
  C  C114  1  0.50000000  0.68439195  0.52883980  1
  C  C115  1  0.50000000  0.68507177  0.69480965  1
  C  C116  1  0.50000000  0.68514683  0.86134356  1
  C  C117  1  0.50000000  0.71447739  0.55529620  1
  C  C118  1  0.50000000  0.71492488  0.72333359  1
  C  C119  1  0.50000000  0.71471648  0.89057192  1
  H  H120  1  0.50000000  0.26104134  0.62923625  1
  H  H121  1  0.50000000  0.26125592  0.79705354  1
  H  H122  1  0.50000000  0.26217898  0.96611524  1
  H  H123  1  0.50000000  0.26196727  0.53383917  1
  H  H124  1  0.50000000  0.26117793  0.70327440  1
  H  H125  1  0.50000000  0.26120575  0.87112490  1
  H  H126  1  0.50000000  0.73894249  0.62917344  1
  H  H127  1  0.50000000  0.73876998  0.79699385  1
  H  H128  1  0.50000000  0.73789520  0.96603699  1
  H  H129  1  0.50000000  0.73798179  0.53374925  1
  H  H130  1  0.50000000  0.73881137  0.70319736  1
  H  H131  1  0.50000000  0.73881934  0.87104565  1
  H  H132  1  0.50000000  0.68368707  0.48641125  1
  H  H133  1  0.50000000  0.31625849  0.48644135  1
  H  H134  1  0.50000000  0.68342780  0.01373958  1
  H  H135  1  0.50000000  0.31665481  0.01374674  1
  H  H136  1  0.50000000  0.62416201  0.01197320  1
  H  H137  1  0.50000000  0.62423714  0.48780206  1
  H  H138  1  0.50000000  0.37584199  0.01198493  1
  H  H139  1  0.50000000  0.37572331  0.48780857  1
  H  H140  1  0.50000000  0.58491229  0.12007309  1
  H  H141  1  0.50000000  0.58480603  0.28706110  1
  H  H142  1  0.50000000  0.58389992  0.45285335  1
  H  H143  1  0.50000000  0.58401605  0.04672466  1
  H  H144  1  0.50000000  0.58476750  0.21312645  1
  H  H145  1  0.50000000  0.58483583  0.38012497  1
  H  H146  1  0.50000000  0.41507821  0.12005005  1
  H  H147  1  0.50000000  0.41519564  0.28705685  1
  H  H148  1  0.50000000  0.41608047  0.45282597  1
  H  H149  1  0.50000000  0.41599845  0.04677876  1
  H  H150  1  0.50000000  0.41521712  0.21308240  1
  H  H151  1  0.50000000  0.41514909  0.38012993  1
