# generated using pymatgen
data_H3C11
_symmetry_space_group_name_H-M   'P 1'
_cell_length_a   10.00000000
_cell_length_b   41.10890000
_cell_length_c   26.31986052
_cell_angle_alpha   90.00000000
_cell_angle_beta   90.00000000
_cell_angle_gamma   90.00000000
_symmetry_Int_Tables_number   1
_chemical_formula_structural   H3C11
_chemical_formula_sum   'H36 C132'
_cell_volume   10819.80514147
_cell_formula_units_Z   12
loop_
 _symmetry_equiv_pos_site_id
 _symmetry_equiv_pos_as_xyz
  1  'x, y, z'
loop_
 _atom_site_type_symbol
 _atom_site_label
 _atom_site_symmetry_multiplicity
 _atom_site_fract_x
 _atom_site_fract_y
 _atom_site_fract_z
 _atom_site_occupancy
  C  C0  1  0.50000000  0.28872852  0.63992540  1
  C  C1  1  0.50000000  0.28995868  0.96831124  1
  C  C2  1  0.50000000  0.34914355  0.64125082  1
  C  C3  1  0.50000000  0.34985719  0.96667929  1
  C  C4  1  0.50000000  0.40917027  0.64189543  1
  C  C5  1  0.50000000  0.40964778  0.96579111  1
  C  C6  1  0.50000000  0.46915955  0.64275292  1
  C  C7  1  0.50000000  0.46952642  0.96439505  1
  C  C8  1  0.50000000  0.52998065  0.64139591  1
  C  C9  1  0.50000000  0.52849141  0.96329676  1
  C  C10  1  0.50000000  0.59052060  0.30472602  1
  C  C11  1  0.50000000  0.59011645  0.63949972  1
  C  C12  1  0.50000000  0.58977190  0.97271214  1
  C  C13  1  0.50000000  0.65017753  0.30481478  1
  C  C14  1  0.50000000  0.64966393  0.63926093  1
  C  C15  1  0.50000000  0.65107097  0.97264614  1
  C  C16  1  0.50000000  0.70985581  0.64136565  1
  C  C17  1  0.50000000  0.71334613  0.96275405  1
  C  C18  1  0.50000000  0.28866778  0.69541357  1
  C  C19  1  0.50000000  0.34898894  0.69575007  1
  C  C20  1  0.50000000  0.40908273  0.69605571  1
  C  C21  1  0.50000000  0.46933052  0.69670403  1
  C  C22  1  0.50000000  0.53001412  0.69589511  1
  C  C23  1  0.50000000  0.58998938  0.02823326  1
  C  C24  1  0.50000000  0.59094774  0.35924998  1
  C  C25  1  0.50000000  0.58998956  0.69458674  1
  C  C26  1  0.50000000  0.65052475  0.02819160  1
  C  C27  1  0.50000000  0.64988257  0.35942194  1
  C  C28  1  0.50000000  0.64937801  0.69439138  1
  C  C29  1  0.50000000  0.70913420  0.69625849  1
  C  C30  1  0.50000000  0.25959827  0.72369052  1
  C  C31  1  0.50000000  0.31868955  0.72272044  1
  C  C32  1  0.50000000  0.37887974  0.72276980  1
  C  C33  1  0.50000000  0.43915724  0.72300531  1
  C  C34  1  0.50000000  0.49976974  0.72292805  1
  C  C35  1  0.50000000  0.56193873  0.06075975  1
  C  C36  1  0.50000000  0.56196829  0.38732761  1
  C  C37  1  0.50000000  0.56007176  0.72262657  1
  C  C38  1  0.50000000  0.62028314  0.05587409  1
  C  C39  1  0.50000000  0.62038219  0.38817388  1
  C  C40  1  0.50000000  0.61974758  0.72230347  1
  C  C41  1  0.50000000  0.67866209  0.06029124  1
  C  C42  1  0.50000000  0.67886133  0.38763642  1
  C  C43  1  0.50000000  0.67915124  0.72267616  1
  C  C44  1  0.50000000  0.73832648  0.72402349  1
  C  C45  1  0.50000000  0.25960497  0.77638393  1
  C  C46  1  0.50000000  0.31869334  0.77732449  1
  C  C47  1  0.50000000  0.37888326  0.77723302  1
  C  C48  1  0.50000000  0.43914201  0.77701832  1
  C  C49  1  0.50000000  0.49978769  0.77706728  1
  C  C50  1  0.50000000  0.56200327  0.11263437  1
  C  C51  1  0.50000000  0.56192353  0.43923263  1
  C  C52  1  0.50000000  0.56007248  0.77736734  1
  C  C53  1  0.50000000  0.62040677  0.11175109  1
  C  C54  1  0.50000000  0.62029002  0.44407468  1
  C  C55  1  0.50000000  0.61974519  0.77770367  1
  C  C56  1  0.50000000  0.67888587  0.11222826  1
  C  C57  1  0.50000000  0.67867891  0.43959048  1
  C  C58  1  0.50000000  0.67914805  0.77735493  1
  C  C59  1  0.50000000  0.73831182  0.77609805  1
  C  C60  1  0.50000000  0.28867329  0.80465288  1
  C  C61  1  0.50000000  0.34900068  0.80427624  1
  C  C62  1  0.50000000  0.40907499  0.80396303  1
  C  C63  1  0.50000000  0.46933664  0.80329210  1
  C  C64  1  0.50000000  0.53002358  0.80410105  1
  C  C65  1  0.50000000  0.59098116  0.14071043  1
  C  C66  1  0.50000000  0.58999530  0.47173129  1
  C  C67  1  0.50000000  0.58998459  0.80541313  1
  C  C68  1  0.50000000  0.64991298  0.14048788  1
  C  C69  1  0.50000000  0.65054889  0.47175263  1
  C  C70  1  0.50000000  0.64937481  0.80561765  1
  C  C71  1  0.50000000  0.70911580  0.80380348  1
  C  C72  1  0.50000000  0.28995470  0.53171510  1
  C  C73  1  0.50000000  0.28873783  0.86014770  1
  C  C74  1  0.50000000  0.34985596  0.53344605  1
  C  C75  1  0.50000000  0.34914668  0.85877925  1
  C  C76  1  0.50000000  0.40963490  0.53418963  1
  C  C77  1  0.50000000  0.40915898  0.85811777  1
  C  C78  1  0.50000000  0.46952039  0.53549148  1
  C  C79  1  0.50000000  0.46916820  0.85724159  1
  C  C80  1  0.50000000  0.52848781  0.53675913  1
  C  C81  1  0.50000000  0.52999053  0.85859104  1
  C  C82  1  0.50000000  0.59053894  0.19520958  1
  C  C83  1  0.50000000  0.58976676  0.52727431  1
  C  C84  1  0.50000000  0.59011881  0.86051401  1
  C  C85  1  0.50000000  0.65017635  0.19509967  1
  C  C86  1  0.50000000  0.65107806  0.52733328  1
  C  C87  1  0.50000000  0.64966559  0.86074294  1
  C  C88  1  0.50000000  0.71335542  0.53724959  1
  C  C89  1  0.50000000  0.70987077  0.85868447  1
  C  C90  1  0.50000000  0.26061028  0.55764631  1
  C  C91  1  0.50000000  0.25993678  0.88906393  1
  C  C92  1  0.50000000  0.31977409  0.55892949  1
  C  C93  1  0.50000000  0.31915461  0.88633421  1
  C  C94  1  0.50000000  0.37957396  0.55983508  1
  C  C95  1  0.50000000  0.37920063  0.88529263  1
  C  C96  1  0.50000000  0.43936641  0.56057700  1
  C  C97  1  0.50000000  0.43933486  0.88452341  1
  C  C98  1  0.50000000  0.49880430  0.56280564  1
  C  C99  1  0.50000000  0.49932857  0.88342021  1
  C  C100  1  0.50000000  0.56110400  0.22379326  1
  C  C101  1  0.50000000  0.55945664  0.55784564  1
  C  C102  1  0.50000000  0.55997377  0.88697661  1
  C  C103  1  0.50000000  0.62036711  0.22268307  1
  C  C104  1  0.50000000  0.62036179  0.55467115  1
  C  C105  1  0.50000000  0.62010150  0.88904906  1
  C  C106  1  0.50000000  0.67953560  0.22376606  1
  C  C107  1  0.50000000  0.68151608  0.55771365  1
  C  C108  1  0.50000000  0.68027377  0.88747656  1
  C  C109  1  0.50000000  0.74184424  0.56538641  1
  C  C110  1  0.50000000  0.74038765  0.88255332  1
  C  C111  1  0.50000000  0.25994980  0.61099324  1
  C  C112  1  0.50000000  0.26060135  0.94242553  1
  C  C113  1  0.50000000  0.31914146  0.61372617  1
  C  C114  1  0.50000000  0.31978930  0.94113806  1
  C  C115  1  0.50000000  0.37920562  0.61475391  1
  C  C116  1  0.50000000  0.37956416  0.94023164  1
  C  C117  1  0.50000000  0.43933688  0.61544184  1
  C  C118  1  0.50000000  0.43936440  0.93936291  1
  C  C119  1  0.50000000  0.49931181  0.61656821  1
  C  C120  1  0.50000000  0.49883137  0.93717283  1
  C  C121  1  0.50000000  0.56109523  0.27608605  1
  C  C122  1  0.50000000  0.55997317  0.61303462  1
  C  C123  1  0.50000000  0.55945905  0.94217183  1
  C  C124  1  0.50000000  0.62036243  0.27726716  1
  C  C125  1  0.50000000  0.62009659  0.61094822  1
  C  C126  1  0.50000000  0.62036289  0.94531015  1
  C  C127  1  0.50000000  0.67953407  0.27610139  1
  C  C128  1  0.50000000  0.68027193  0.61253869  1
  C  C129  1  0.50000000  0.68151046  0.94229241  1
  C  C130  1  0.50000000  0.74036575  0.61751784  1
  C  C131  1  0.50000000  0.74186411  0.93468993  1
  H  H132  1  0.50000000  0.23615086  0.70407554  1
  H  H133  1  0.50000000  0.76189068  0.70509998  1
  H  H134  1  0.50000000  0.23616556  0.79602246  1
  H  H135  1  0.50000000  0.76181842  0.79521200  1
  H  H136  1  0.50000000  0.23762351  0.53653914  1
  H  H137  1  0.50000000  0.23627375  0.87012165  1
  H  H138  1  0.50000000  0.76529633  0.54563502  1
  H  H139  1  0.50000000  0.76295646  0.86083431  1
  H  H140  1  0.50000000  0.23626830  0.62990289  1
  H  H141  1  0.50000000  0.23767831  0.96372970  1
  H  H142  1  0.50000000  0.76295802  0.63916587  1
  H  H143  1  0.50000000  0.76525249  0.95465465  1
  H  H144  1  0.50000000  0.29067117  0.00995069  1
  H  H145  1  0.50000000  0.35015437  0.00836472  1
  H  H146  1  0.50000000  0.40976838  0.00744080  1
  H  H147  1  0.50000000  0.47013524  0.00603661  1
  H  H148  1  0.50000000  0.52408438  0.00313206  1
  H  H149  1  0.50000000  0.71843042  0.00254295  1
  H  H150  1  0.50000000  0.53737990  0.04740990  1
  H  H151  1  0.50000000  0.53830361  0.36839388  1
  H  H152  1  0.50000000  0.70287043  0.04558830  1
  H  H153  1  0.50000000  0.70259533  0.36886137  1
  H  H154  1  0.50000000  0.53830619  0.13147794  1
  H  H155  1  0.50000000  0.53738784  0.45269574  1
  H  H156  1  0.50000000  0.70264353  0.13090563  1
  H  H157  1  0.50000000  0.70295366  0.45404577  1
  H  H158  1  0.50000000  0.29066114  0.49007256  1
  H  H159  1  0.50000000  0.35016513  0.49179656  1
  H  H160  1  0.50000000  0.40973357  0.49253060  1
  H  H161  1  0.50000000  0.47013208  0.49379813  1
  H  H162  1  0.50000000  0.52406055  0.49695482  1
  H  H163  1  0.50000000  0.71839520  0.49742476  1
  H  H164  1  0.50000000  0.53761161  0.20428656  1
  H  H165  1  0.50000000  0.70298198  0.20420121  1
  H  H166  1  0.50000000  0.53758036  0.29550115  1
  H  H167  1  0.50000000  0.70300179  0.29557943  1
