# generated using pymatgen
data_H17C60
_symmetry_space_group_name_H-M   'P 1'
_cell_length_a   20.00000000
_cell_length_b   40.19450000
_cell_length_c   26.11527129
_cell_angle_alpha   90.00000000
_cell_angle_beta   90.00000000
_cell_angle_gamma   90.00000000
_symmetry_Int_Tables_number   1
_chemical_formula_structural   H17C60
_chemical_formula_sum   'H34 C120'
_cell_volume   20993.80543881
_cell_formula_units_Z   2
loop_
 _symmetry_equiv_pos_site_id
 _symmetry_equiv_pos_as_xyz
  1  'x, y, z'
loop_
 _atom_site_type_symbol
 _atom_site_label
 _atom_site_symmetry_multiplicity
 _atom_site_fract_x
 _atom_site_fract_y
 _atom_site_fract_z
 _atom_site_occupancy
  C  C0  1  0.50000000  0.28159939  0.10663959  1
  C  C1  1  0.50000000  0.28723339  0.61112847  1
  C  C2  1  0.50000000  0.27974540  0.27657068  1
  C  C3  1  0.50000000  0.28778765  0.77624865  1
  C  C4  1  0.50000000  0.28342442  0.44606914  1
  C  C5  1  0.50000000  0.28656666  0.94105689  1
  C  C6  1  0.50000000  0.31058749  0.13781142  1
  C  C7  1  0.50000000  0.31762973  0.63888913  1
  C  C8  1  0.50000000  0.30960505  0.30623363  1
  C  C9  1  0.50000000  0.31758278  0.80502462  1
  C  C10  1  0.50000000  0.31419093  0.47342819  1
  C  C11  1  0.50000000  0.31608001  0.97099594  1
  C  C12  1  0.50000000  0.28334796  0.05378617  1
  C  C13  1  0.50000000  0.28662698  0.55858622  1
  C  C14  1  0.50000000  0.27974269  0.22340686  1
  C  C15  1  0.50000000  0.28779372  0.72328579  1
  C  C16  1  0.50000000  0.28163169  0.39323407  1
  C  C17  1  0.50000000  0.28721881  0.88848894  1
  C  C18  1  0.50000000  0.34187535  0.11115007  1
  C  C19  1  0.50000000  0.34792160  0.61090572  1
  C  C20  1  0.50000000  0.33995858  0.27752871  1
  C  C21  1  0.50000000  0.34816290  0.77745567  1
  C  C22  1  0.50000000  0.34404403  0.44432432  1
  C  C23  1  0.50000000  0.34759465  0.94460895  1
  C  C24  1  0.50000000  0.37145863  0.14109733  1
  C  C25  1  0.50000000  0.37882991  0.63915071  1
  C  C26  1  0.50000000  0.37090289  0.30423962  1
  C  C27  1  0.50000000  0.37880232  0.80535166  1
  C  C28  1  0.50000000  0.37583756  0.47077378  1
  C  C29  1  0.50000000  0.37805300  0.97348075  1
  C  C30  1  0.50000000  0.31410923  0.02631704  1
  C  C31  1  0.50000000  0.31616455  0.52871781  1
  C  C32  1  0.50000000  0.30957589  0.19363707  1
  C  C33  1  0.50000000  0.31761004  0.69459397  1
  C  C34  1  0.50000000  0.31060722  0.36202947  1
  C  C35  1  0.50000000  0.31760654  0.86075106  1
  C  C36  1  0.50000000  0.34398556  0.05544163  1
  C  C37  1  0.50000000  0.34767822  0.55510784  1
  C  C38  1  0.50000000  0.33993925  0.22230454  1
  C  C39  1  0.50000000  0.34817720  0.72220464  1
  C  C40  1  0.50000000  0.34191889  0.38863843  1
  C  C41  1  0.50000000  0.34788994  0.88877138  1
  C  C42  1  0.50000000  0.40194387  0.11473190  1
  C  C43  1  0.50000000  0.40926321  0.61190027  1
  C  C44  1  0.50000000  0.40109879  0.27600989  1
  C  C45  1  0.50000000  0.40931037  0.77742149  1
  C  C46  1  0.50000000  0.40375936  0.43707652  1
  C  C47  1  0.50000000  0.40954933  0.94375529  1
  C  C48  1  0.50000000  0.43999313  0.64035646  1
  C  C49  1  0.50000000  0.43999771  0.80452964  1
  C  C50  1  0.50000000  0.44108827  0.96543843  1
  C  C51  1  0.50000000  0.37578580  0.02895583  1
  C  C52  1  0.50000000  0.37813125  0.52623802  1
  C  C53  1  0.50000000  0.37087120  0.19555391  1
  C  C54  1  0.50000000  0.37882717  0.69434988  1
  C  C55  1  0.50000000  0.37150065  0.35869679  1
  C  C56  1  0.50000000  0.37881271  0.86050180  1
  C  C57  1  0.50000000  0.40370180  0.06269414  1
  C  C58  1  0.50000000  0.40961783  0.55592456  1
  C  C59  1  0.50000000  0.40106676  0.22377320  1
  C  C60  1  0.50000000  0.40933022  0.72236584  1
  C  C61  1  0.50000000  0.40200494  0.38502767  1
  C  C62  1  0.50000000  0.40924209  0.88780344  1
  C  C63  1  0.50000000  0.47116143  0.61503469  1
  C  C64  1  0.50000000  0.47086189  0.77720955  1
  C  C65  1  0.50000000  0.47159669  0.93907264  1
  C  C66  1  0.50000000  0.50195255  0.64155407  1
  C  C67  1  0.50000000  0.50187208  0.80374306  1
  C  C68  1  0.50000000  0.50158731  0.96631151  1
  C  C69  1  0.50000000  0.44111802  0.53424296  1
  C  C70  1  0.50000000  0.43999428  0.69524567  1
  C  C71  1  0.50000000  0.44000313  0.85941449  1
  C  C72  1  0.50000000  0.47154241  0.56070732  1
  C  C73  1  0.50000000  0.47085429  0.72257845  1
  C  C74  1  0.50000000  0.47117798  0.88473384  1
  C  C75  1  0.50000000  0.53247246  0.61406535  1
  C  C76  1  0.50000000  0.53273527  0.77711444  1
  C  C77  1  0.50000000  0.53251081  0.94087912  1
  C  C78  1  0.50000000  0.56334504  0.64066999  1
  C  C79  1  0.50000000  0.56344445  0.80431620  1
  C  C80  1  0.50000000  0.56288265  0.96747428  1
  C  C81  1  0.50000000  0.50149750  0.53344954  1
  C  C82  1  0.50000000  0.50185801  0.69600411  1
  C  C83  1  0.50000000  0.50197778  0.85818873  1
  C  C84  1  0.50000000  0.53241859  0.55880215  1
  C  C85  1  0.50000000  0.53272449  0.72259962  1
  C  C86  1  0.50000000  0.53252471  0.88562369  1
  C  C87  1  0.50000000  0.59395985  0.61317277  1
  C  C88  1  0.50000000  0.59428017  0.77726154  1
  C  C89  1  0.50000000  0.59377325  0.94179728  1
  C  C90  1  0.50000000  0.62468432  0.63998635  1
  C  C91  1  0.50000000  0.62482788  0.80450161  1
  C  C92  1  0.50000000  0.62428348  0.96825301  1
  C  C93  1  0.50000000  0.56274144  0.53215120  1
  C  C94  1  0.50000000  0.56342075  0.69533637  1
  C  C95  1  0.50000000  0.56339680  0.85897852  1
  C  C96  1  0.50000000  0.59363687  0.55774106  1
  C  C97  1  0.50000000  0.59426761  0.72232315  1
  C  C98  1  0.50000000  0.59405907  0.88636513  1
  C  C99  1  0.50000000  0.65534092  0.61228653  1
  C  C100  1  0.50000000  0.65573109  0.77718161  1
  C  C101  1  0.50000000  0.65501029  0.94229267  1
  C  C102  1  0.50000000  0.68636481  0.63888622  1
  C  C103  1  0.50000000  0.68645546  0.80454586  1
  C  C104  1  0.50000000  0.68577114  0.96911181  1
  C  C105  1  0.50000000  0.62408864  0.53117290  1
  C  C106  1  0.50000000  0.62478030  0.69495725  1
  C  C107  1  0.50000000  0.62477060  0.85946245  1
  C  C108  1  0.50000000  0.65482633  0.55704273  1
  C  C109  1  0.50000000  0.65571171  0.72218006  1
  C  C110  1  0.50000000  0.65546894  0.88706022  1
  C  C111  1  0.50000000  0.71592496  0.61017529  1
  C  C112  1  0.50000000  0.71618201  0.77608250  1
  C  C113  1  0.50000000  0.71563350  0.94261481  1
  C  C114  1  0.50000000  0.68551382  0.53004483  1
  C  C115  1  0.50000000  0.68638900  0.69469441  1
  C  C116  1  0.50000000  0.68648388  0.86036473  1
  C  C117  1  0.50000000  0.71540557  0.55647820  1
  C  C118  1  0.50000000  0.71615437  0.72305150  1
  C  C119  1  0.50000000  0.71611144  0.88891314  1
  H  H120  1  0.50000000  0.25706106  0.12478815  1
  H  H121  1  0.50000000  0.26356073  0.63169514  1
  H  H122  1  0.50000000  0.25559299  0.29602699  1
  H  H123  1  0.50000000  0.26372960  0.79566186  1
  H  H124  1  0.50000000  0.25995219  0.46720597  1
  H  H125  1  0.50000000  0.26225985  0.95984884  1
  H  H126  1  0.50000000  0.25986331  0.03268570  1
  H  H127  1  0.50000000  0.26238545  0.53960196  1
  H  H128  1  0.50000000  0.25553791  0.20413413  1
  H  H129  1  0.50000000  0.26375573  0.70377013  1
  H  H130  1  0.50000000  0.25697403  0.37550411  1
  H  H131  1  0.50000000  0.26355875  0.86793625  1
  H  H132  1  0.50000000  0.74007366  0.62940463  1
  H  H133  1  0.50000000  0.74024302  0.79561247  1
  H  H134  1  0.50000000  0.73918682  0.96370282  1
  H  H135  1  0.50000000  0.73904268  0.53564120  1
  H  H136  1  0.50000000  0.74014496  0.70331965  1
  H  H137  1  0.50000000  0.74019091  0.86943283  1
  H  H138  1  0.50000000  0.68517018  0.48807946  1
  H  H139  1  0.50000000  0.62396867  0.48914918  1
  H  H140  1  0.50000000  0.56241649  0.00946615  1
  H  H141  1  0.50000000  0.62417534  0.01026749  1
  H  H142  1  0.50000000  0.56225746  0.49019340  1
  H  H143  1  0.50000000  0.68566914  0.01105345  1
  H  H144  1  0.50000000  0.50099231  0.00830613  1
  H  H145  1  0.50000000  0.50087862  0.49146783  1
  H  H146  1  0.50000000  0.42549304  0.13546663  1
  H  H147  1  0.50000000  0.42507685  0.29562714  1
  H  H148  1  0.50000000  0.42893427  0.45027751  1
  H  H149  1  0.50000000  0.44527520  0.00581740  1
  H  H150  1  0.50000000  0.42895580  0.04980759  1
  H  H151  1  0.50000000  0.42504391  0.20419171  1
  H  H152  1  0.50000000  0.42553749  0.36424423  1
  H  H153  1  0.50000000  0.44550177  0.49385913  1
