# generated using pymatgen
data_H16C57
_symmetry_space_group_name_H-M   'P 1'
_cell_length_a   20.00000000
_cell_length_b   37.22700000
_cell_length_c   25.83744526
_cell_angle_alpha   90.00000000
_cell_angle_beta   90.00000000
_cell_angle_gamma   90.00000000
_symmetry_Int_Tables_number   1
_chemical_formula_structural   H16C57
_chemical_formula_sum   'H32 C114'
_cell_volume   19237.01149735
_cell_formula_units_Z   2
loop_
 _symmetry_equiv_pos_site_id
 _symmetry_equiv_pos_as_xyz
  1  'x, y, z'
loop_
 _atom_site_type_symbol
 _atom_site_label
 _atom_site_symmetry_multiplicity
 _atom_site_fract_x
 _atom_site_fract_y
 _atom_site_fract_z
 _atom_site_occupancy
  C  C0  1  0.50000000  0.31769380  0.22220911  1
  C  C1  1  0.50000000  0.31729950  0.55583868  1
  C  C2  1  0.50000000  0.31760469  0.88853212  1
  C  C3  1  0.50000000  0.38411509  0.22213758  1
  C  C4  1  0.50000000  0.38371241  0.55611071  1
  C  C5  1  0.50000000  0.38402203  0.88876764  1
  C  C6  1  0.50000000  0.45096859  0.55581736  1
  C  C7  1  0.50000000  0.45056626  0.88820862  1
  C  C8  1  0.50000000  0.51709192  0.55681084  1
  C  C9  1  0.50000000  0.51705781  0.88748378  1
  C  C10  1  0.50000000  0.58306572  0.55609637  1
  C  C11  1  0.50000000  0.58342909  0.88799319  1
  C  C12  1  0.50000000  0.64905196  0.55526682  1
  C  C13  1  0.50000000  0.64977106  0.88896145  1
  C  C14  1  0.50000000  0.71435335  0.55389353  1
  C  C15  1  0.50000000  0.71519069  0.89182411  1
  C  C16  1  0.50000000  0.31769039  0.27779666  1
  C  C17  1  0.50000000  0.31760834  0.61143619  1
  C  C18  1  0.50000000  0.31729173  0.94411834  1
  C  C19  1  0.50000000  0.38411625  0.27788327  1
  C  C20  1  0.50000000  0.38402980  0.61117613  1
  C  C21  1  0.50000000  0.38369723  0.94383826  1
  C  C22  1  0.50000000  0.45056499  0.61173338  1
  C  C23  1  0.50000000  0.45095608  0.94411376  1
  C  C24  1  0.50000000  0.51704668  0.61250518  1
  C  C25  1  0.50000000  0.51709754  0.94317268  1
  C  C26  1  0.50000000  0.58341701  0.61204795  1
  C  C27  1  0.50000000  0.58307760  0.94396363  1
  C  C28  1  0.50000000  0.64975999  0.61107072  1
  C  C29  1  0.50000000  0.64905262  0.94477817  1
  C  C30  1  0.50000000  0.71515635  0.60825534  1
  C  C31  1  0.50000000  0.71436681  0.94619496  1
  C  C32  1  0.50000000  0.28529349  0.30656690  1
  C  C33  1  0.50000000  0.28523750  0.64044974  1
  C  C34  1  0.50000000  0.28486689  0.97311733  1
  C  C35  1  0.50000000  0.35087645  0.30565548  1
  C  C36  1  0.50000000  0.35089967  0.63899355  1
  C  C37  1  0.50000000  0.35044586  0.97181382  1
  C  C38  1  0.50000000  0.41640168  0.30708735  1
  C  C39  1  0.50000000  0.41759748  0.63900178  1
  C  C40  1  0.50000000  0.41682137  0.97217021  1
  C  C41  1  0.50000000  0.48389563  0.63950681  1
  C  C42  1  0.50000000  0.48370022  0.96953727  1
  C  C43  1  0.50000000  0.55031243  0.63974242  1
  C  C44  1  0.50000000  0.54966771  0.97001802  1
  C  C45  1  0.50000000  0.61666553  0.63911191  1
  C  C46  1  0.50000000  0.61581120  0.97081947  1
  C  C47  1  0.50000000  0.68341074  0.63775128  1
  C  C48  1  0.50000000  0.68195118  0.97252562  1
  C  C49  1  0.50000000  0.28478289  0.02633742  1
  C  C50  1  0.50000000  0.28513338  0.35981695  1
  C  C51  1  0.50000000  0.28544849  0.69353282  1
  C  C52  1  0.50000000  0.35027382  0.02733954  1
  C  C53  1  0.50000000  0.35073243  0.36138570  1
  C  C54  1  0.50000000  0.35102676  0.69456357  1
  C  C55  1  0.50000000  0.41565193  0.02593009  1
  C  C56  1  0.50000000  0.41622524  0.36038972  1
  C  C57  1  0.50000000  0.41754955  0.69453199  1
  C  C58  1  0.50000000  0.48392942  0.69488322  1
  C  C59  1  0.50000000  0.55039983  0.69498663  1
  C  C60  1  0.50000000  0.61680414  0.69469505  1
  C  C61  1  0.50000000  0.68342780  0.69432248  1
  C  C62  1  0.50000000  0.31719612  0.05530232  1
  C  C63  1  0.50000000  0.31739512  0.38894960  1
  C  C64  1  0.50000000  0.31805265  0.72208741  1
  C  C65  1  0.50000000  0.38363033  0.05481133  1
  C  C66  1  0.50000000  0.38385413  0.38934406  1
  C  C67  1  0.50000000  0.38440293  0.72235211  1
  C  C68  1  0.50000000  0.45065972  0.72228788  1
  C  C69  1  0.50000000  0.51714333  0.72230462  1
  C  C70  1  0.50000000  0.58381775  0.72224145  1
  C  C71  1  0.50000000  0.65027594  0.72218561  1
  C  C72  1  0.50000000  0.71550317  0.72314856  1
  C  C73  1  0.50000000  0.31740318  0.11103727  1
  C  C74  1  0.50000000  0.31718936  0.44469662  1
  C  C75  1  0.50000000  0.31802924  0.77778472  1
  C  C76  1  0.50000000  0.38387591  0.11065522  1
  C  C77  1  0.50000000  0.38361654  0.44518025  1
  C  C78  1  0.50000000  0.38440400  0.77760017  1
  C  C79  1  0.50000000  0.45066496  0.77769247  1
  C  C80  1  0.50000000  0.51714886  0.77770032  1
  C  C81  1  0.50000000  0.58381840  0.77776686  1
  C  C82  1  0.50000000  0.65027665  0.77785072  1
  C  C83  1  0.50000000  0.71550308  0.77685946  1
  C  C84  1  0.50000000  0.28514956  0.14017515  1
  C  C85  1  0.50000000  0.28476822  0.47363179  1
  C  C86  1  0.50000000  0.28544926  0.80643609  1
  C  C87  1  0.50000000  0.35074251  0.13860453  1
  C  C88  1  0.50000000  0.35026365  0.47263816  1
  C  C89  1  0.50000000  0.35100632  0.80535255  1
  C  C90  1  0.50000000  0.41623635  0.13965589  1
  C  C91  1  0.50000000  0.41565588  0.47399420  1
  C  C92  1  0.50000000  0.41755146  0.80542949  1
  C  C93  1  0.50000000  0.48393511  0.80510664  1
  C  C94  1  0.50000000  0.55040547  0.80502487  1
  C  C95  1  0.50000000  0.61680151  0.80533267  1
  C  C96  1  0.50000000  0.68343765  0.80571491  1
  C  C97  1  0.50000000  0.28531378  0.19342688  1
  C  C98  1  0.50000000  0.28485780  0.52687752  1
  C  C99  1  0.50000000  0.28524597  0.85952170  1
  C  C100  1  0.50000000  0.35087859  0.19435322  1
  C  C101  1  0.50000000  0.35045030  0.52816245  1
  C  C102  1  0.50000000  0.35088667  0.86095240  1
  C  C103  1  0.50000000  0.41640461  0.19296615  1
  C  C104  1  0.50000000  0.41683750  0.52776836  1
  C  C105  1  0.50000000  0.41759610  0.86095499  1
  C  C106  1  0.50000000  0.48371413  0.53037745  1
  C  C107  1  0.50000000  0.48390708  0.86047131  1
  C  C108  1  0.50000000  0.54966946  0.53000472  1
  C  C109  1  0.50000000  0.55032736  0.86026959  1
  C  C110  1  0.50000000  0.61580053  0.52926689  1
  C  C111  1  0.50000000  0.61667379  0.86091639  1
  C  C112  1  0.50000000  0.68195432  0.52751026  1
  C  C113  1  0.50000000  0.68343624  0.86230454  1
  H  H114  1  0.50000000  0.73967319  0.53228332  1
  H  H115  1  0.50000000  0.74141328  0.87270778  1
  H  H116  1  0.50000000  0.74135348  0.62743018  1
  H  H117  1  0.50000000  0.73961371  0.96801661  1
  H  H118  1  0.50000000  0.25954915  0.28633738  1
  H  H119  1  0.50000000  0.25939757  0.62042024  1
  H  H120  1  0.50000000  0.25898918  0.95317808  1
  H  H121  1  0.50000000  0.25884663  0.04618695  1
  H  H122  1  0.50000000  0.25926262  0.37977346  1
  H  H123  1  0.50000000  0.25976864  0.71394773  1
  H  H124  1  0.50000000  0.74137333  0.70311259  1
  H  H125  1  0.50000000  0.74137246  0.79689357  1
  H  H126  1  0.50000000  0.25920526  0.12044610  1
  H  H127  1  0.50000000  0.25890020  0.45359437  1
  H  H128  1  0.50000000  0.25971199  0.78623598  1
  H  H129  1  0.50000000  0.25950503  0.21344972  1
  H  H130  1  0.50000000  0.25905237  0.54701704  1
  H  H131  1  0.50000000  0.25932574  0.87927502  1
  H  H132  1  0.50000000  0.44239526  0.28739832  1
  H  H133  1  0.50000000  0.48487002  0.01180260  1
  H  H134  1  0.50000000  0.54943629  0.01245425  1
  H  H135  1  0.50000000  0.61562600  0.01328276  1
  H  H136  1  0.50000000  0.68122967  0.01494747  1
  H  H137  1  0.50000000  0.44095360  0.04702612  1
  H  H138  1  0.50000000  0.44209715  0.38037354  1
  H  H139  1  0.50000000  0.44213583  0.11975610  1
  H  H140  1  0.50000000  0.44088924  0.45270262  1
  H  H141  1  0.50000000  0.44238094  0.21272267  1
  H  H142  1  0.50000000  0.48490856  0.48807699  1
  H  H143  1  0.50000000  0.54944525  0.48755275  1
  H  H144  1  0.50000000  0.61559577  0.48682911  1
  H  H145  1  0.50000000  0.68121921  0.48509500  1
