# generated using pymatgen
data_H16C57
_symmetry_space_group_name_H-M   'P 1'
_cell_length_a   20.00000000
_cell_length_b   37.22700000
_cell_length_c   25.89959277
_cell_angle_alpha   90.00000000
_cell_angle_beta   90.00000000
_cell_angle_gamma   90.00000000
_symmetry_Int_Tables_number   1
_chemical_formula_structural   H16C57
_chemical_formula_sum   'H32 C114'
_cell_volume   19283.28280423
_cell_formula_units_Z   2
loop_
 _symmetry_equiv_pos_site_id
 _symmetry_equiv_pos_as_xyz
  1  'x, y, z'
loop_
 _atom_site_type_symbol
 _atom_site_label
 _atom_site_symmetry_multiplicity
 _atom_site_fract_x
 _atom_site_fract_y
 _atom_site_fract_z
 _atom_site_occupancy
  C  C0  1  0.50000000  0.31709049  0.55421308  1
  C  C1  1  0.50000000  0.31685364  0.88894414  1
  C  C2  1  0.50000000  0.38380883  0.55644813  1
  C  C3  1  0.50000000  0.38356346  0.88770115  1
  C  C4  1  0.50000000  0.44983867  0.55728400  1
  C  C5  1  0.50000000  0.44984021  0.88723300  1
  C  C6  1  0.50000000  0.51590514  0.55640820  1
  C  C7  1  0.50000000  0.51624104  0.88794386  1
  C  C8  1  0.50000000  0.58304209  0.22179180  1
  C  C9  1  0.50000000  0.58273104  0.55640327  1
  C  C10  1  0.50000000  0.58274582  0.88803354  1
  C  C11  1  0.50000000  0.64953231  0.22180954  1
  C  C12  1  0.50000000  0.64893257  0.55657207  1
  C  C13  1  0.50000000  0.64911821  0.88821549  1
  C  C14  1  0.50000000  0.71469285  0.55666159  1
  C  C15  1  0.50000000  0.71475351  0.89009796  1
  C  C16  1  0.50000000  0.31687620  0.61112334  1
  C  C17  1  0.50000000  0.31707485  0.94586718  1
  C  C18  1  0.50000000  0.38357876  0.61233140  1
  C  C19  1  0.50000000  0.38380098  0.94358332  1
  C  C20  1  0.50000000  0.44983925  0.61273735  1
  C  C21  1  0.50000000  0.44984300  0.94267191  1
  C  C22  1  0.50000000  0.51622637  0.61199597  1
  C  C23  1  0.50000000  0.51592117  0.94352303  1
  C  C24  1  0.50000000  0.58303828  0.27824693  1
  C  C25  1  0.50000000  0.58273126  0.61192846  1
  C  C26  1  0.50000000  0.58274999  0.94355930  1
  C  C27  1  0.50000000  0.64953198  0.27822283  1
  C  C28  1  0.50000000  0.64911799  0.61175755  1
  C  C29  1  0.50000000  0.64895374  0.94341455  1
  C  C30  1  0.50000000  0.71476750  0.60982684  1
  C  C31  1  0.50000000  0.71470994  0.94327069  1
  C  C32  1  0.50000000  0.28470838  0.63931837  1
  C  C33  1  0.50000000  0.28618072  0.97560488  1
  C  C34  1  0.50000000  0.34995770  0.63911429  1
  C  C35  1  0.50000000  0.35117037  0.97066225  1
  C  C36  1  0.50000000  0.41638535  0.63982626  1
  C  C37  1  0.50000000  0.41708512  0.96948218  1
  C  C38  1  0.50000000  0.48301131  0.63966861  1
  C  C39  1  0.50000000  0.48309148  0.96903652  1
  C  C40  1  0.50000000  0.55110537  0.30690886  1
  C  C41  1  0.50000000  0.54941808  0.63945368  1
  C  C42  1  0.50000000  0.54994247  0.97147515  1
  C  C43  1  0.50000000  0.61630132  0.30596492  1
  C  C44  1  0.50000000  0.61571198  0.63951296  1
  C  C45  1  0.50000000  0.61592202  0.97140103  1
  C  C46  1  0.50000000  0.68151125  0.30676945  1
  C  C47  1  0.50000000  0.68234614  0.63878236  1
  C  C48  1  0.50000000  0.68197135  0.97131203  1
  C  C49  1  0.50000000  0.28442295  0.69295739  1
  C  C50  1  0.50000000  0.34977328  0.69455927  1
  C  C51  1  0.50000000  0.41629057  0.69520260  1
  C  C52  1  0.50000000  0.48299284  0.69507882  1
  C  C53  1  0.50000000  0.55116104  0.02570637  1
  C  C54  1  0.50000000  0.55115939  0.36068596  1
  C  C55  1  0.50000000  0.54945663  0.69470152  1
  C  C56  1  0.50000000  0.61629414  0.02662905  1
  C  C57  1  0.50000000  0.61634115  0.36163028  1
  C  C58  1  0.50000000  0.61575715  0.69468734  1
  C  C59  1  0.50000000  0.68155061  0.02592470  1
  C  C60  1  0.50000000  0.68154437  0.36051425  1
  C  C61  1  0.50000000  0.68233567  0.69470450  1
  C  C62  1  0.50000000  0.31644870  0.72188692  1
  C  C63  1  0.50000000  0.38313057  0.72235182  1
  C  C64  1  0.50000000  0.44966409  0.72246300  1
  C  C65  1  0.50000000  0.51612549  0.72236303  1
  C  C66  1  0.50000000  0.58305435  0.05406923  1
  C  C67  1  0.50000000  0.58305165  0.38932422  1
  C  C68  1  0.50000000  0.58259784  0.72219407  1
  C  C69  1  0.50000000  0.64983556  0.05418528  1
  C  C70  1  0.50000000  0.64966419  0.38919519  1
  C  C71  1  0.50000000  0.64917924  0.72223314  1
  C  C72  1  0.50000000  0.71464506  0.72334492  1
  C  C73  1  0.50000000  0.31645615  0.77815433  1
  C  C74  1  0.50000000  0.38312631  0.77767708  1
  C  C75  1  0.50000000  0.44966022  0.77754653  1
  C  C76  1  0.50000000  0.51612595  0.77759669  1
  C  C77  1  0.50000000  0.58303722  0.11069920  1
  C  C78  1  0.50000000  0.58307429  0.44592968  1
  C  C79  1  0.50000000  0.58259744  0.77774419  1
  C  C80  1  0.50000000  0.64966192  0.11082300  1
  C  C81  1  0.50000000  0.64983824  0.44581587  1
  C  C82  1  0.50000000  0.64916821  0.77770266  1
  C  C83  1  0.50000000  0.71462911  0.77661924  1
  C  C84  1  0.50000000  0.28441829  0.80707647  1
  C  C85  1  0.50000000  0.34977247  0.80548536  1
  C  C86  1  0.50000000  0.41629036  0.80481812  1
  C  C87  1  0.50000000  0.48299885  0.80489359  1
  C  C88  1  0.50000000  0.55114991  0.13936707  1
  C  C89  1  0.50000000  0.55116808  0.47424869  1
  C  C90  1  0.50000000  0.54946055  0.80524209  1
  C  C91  1  0.50000000  0.61633438  0.13838913  1
  C  C92  1  0.50000000  0.61630135  0.47336886  1
  C  C93  1  0.50000000  0.61575343  0.80525698  1
  C  C94  1  0.50000000  0.68153958  0.13952622  1
  C  C95  1  0.50000000  0.68154809  0.47407526  1
  C  C96  1  0.50000000  0.68231341  0.80524063  1
  C  C97  1  0.50000000  0.28617519  0.52454596  1
  C  C98  1  0.50000000  0.28469601  0.86072193  1
  C  C99  1  0.50000000  0.35117154  0.52939136  1
  C  C100  1  0.50000000  0.34993407  0.86093454  1
  C  C101  1  0.50000000  0.41707181  0.53049646  1
  C  C102  1  0.50000000  0.41636629  0.86018593  1
  C  C103  1  0.50000000  0.48307726  0.53088403  1
  C  C104  1  0.50000000  0.48301559  0.86029109  1
  C  C105  1  0.50000000  0.55110620  0.19315227  1
  C  C106  1  0.50000000  0.54992692  0.52847401  1
  C  C107  1  0.50000000  0.54943490  0.86048870  1
  C  C108  1  0.50000000  0.61630099  0.19405850  1
  C  C109  1  0.50000000  0.61591038  0.52857803  1
  C  C110  1  0.50000000  0.61571952  0.86044229  1
  C  C111  1  0.50000000  0.68151000  0.19326600  1
  C  C112  1  0.50000000  0.68194476  0.52867356  1
  C  C113  1  0.50000000  0.68232830  0.86116496  1
  H  H114  1  0.50000000  0.74008234  0.53523136  1
  H  H115  1  0.50000000  0.74056093  0.87002374  1
  H  H116  1  0.50000000  0.74059558  0.62984906  1
  H  H117  1  0.50000000  0.74013406  0.96462444  1
  H  H118  1  0.50000000  0.25896922  0.61893216  1
  H  H119  1  0.50000000  0.25907765  0.95938346  1
  H  H120  1  0.50000000  0.25834353  0.71242731  1
  H  H121  1  0.50000000  0.74049717  0.70336517  1
  H  H122  1  0.50000000  0.74046072  0.79665097  1
  H  H123  1  0.50000000  0.25838129  0.78749770  1
  H  H124  1  0.50000000  0.25909743  0.54085683  1
  H  H125  1  0.50000000  0.25897374  0.88115931  1
  H  H126  1  0.50000000  0.28836224  0.01778799  1
  H  H127  1  0.50000000  0.35186508  0.01300707  1
  H  H128  1  0.50000000  0.41735734  0.01178400  1
  H  H129  1  0.50000000  0.48200451  0.01119537  1
  H  H130  1  0.50000000  0.52503986  0.28744917  1
  H  H131  1  0.50000000  0.70750271  0.28712623  1
  H  H132  1  0.50000000  0.52574857  0.04657280  1
  H  H133  1  0.50000000  0.52511962  0.38022174  1
  H  H134  1  0.50000000  0.70761743  0.04546924  1
  H  H135  1  0.50000000  0.70756963  0.38006769  1
  H  H136  1  0.50000000  0.52511429  0.11982035  1
  H  H137  1  0.50000000  0.52581817  0.45324194  1
  H  H138  1  0.50000000  0.70758754  0.12003856  1
  H  H139  1  0.50000000  0.70762960  0.45457275  1
  H  H140  1  0.50000000  0.28828855  0.48235476  1
  H  H141  1  0.50000000  0.35187236  0.48704177  1
  H  H142  1  0.50000000  0.41731643  0.48818602  1
  H  H143  1  0.50000000  0.48198264  0.48872421  1
  H  H144  1  0.50000000  0.52506984  0.21269646  1
  H  H145  1  0.50000000  0.70751992  0.21287361  1
