# generated using pymatgen
data_H17C66
_symmetry_space_group_name_H-M   'P 1'
_cell_length_a   10.00000000
_cell_length_b   41.10890000
_cell_length_c   25.81638914
_cell_angle_alpha   90.00000000
_cell_angle_beta   90.00000000
_cell_angle_gamma   90.00000000
_symmetry_Int_Tables_number   1
_chemical_formula_structural   H17C66
_chemical_formula_sum   'H34 C132'
_cell_volume   10612.83359624
_cell_formula_units_Z   2
loop_
 _symmetry_equiv_pos_site_id
 _symmetry_equiv_pos_as_xyz
  1  'x, y, z'
loop_
 _atom_site_type_symbol
 _atom_site_label
 _atom_site_symmetry_multiplicity
 _atom_site_fract_x
 _atom_site_fract_y
 _atom_site_fract_z
 _atom_site_occupancy
  C  C0  1  0.50000000  0.28887396  0.63785250  1
  C  C1  1  0.50000000  0.29005931  0.97238896  1
  C  C2  1  0.50000000  0.34926490  0.63938114  1
  C  C3  1  0.50000000  0.35004743  0.97061123  1
  C  C4  1  0.50000000  0.40945916  0.63953403  1
  C  C5  1  0.50000000  0.40963429  0.96963302  1
  C  C6  1  0.50000000  0.47061550  0.30685470  1
  C  C7  1  0.50000000  0.46954038  0.63914448  1
  C  C8  1  0.50000000  0.47004325  0.97220140  1
  C  C9  1  0.50000000  0.53001040  0.30569823  1
  C  C10  1  0.50000000  0.53002964  0.63895328  1
  C  C11  1  0.50000000  0.52999642  0.97180350  1
  C  C12  1  0.50000000  0.58939974  0.30689280  1
  C  C13  1  0.50000000  0.59045784  0.63925724  1
  C  C14  1  0.50000000  0.58990297  0.97216968  1
  C  C15  1  0.50000000  0.65061999  0.63932634  1
  C  C16  1  0.50000000  0.65031891  0.96987579  1
  C  C17  1  0.50000000  0.71120167  0.63833679  1
  C  C18  1  0.50000000  0.71009707  0.97164185  1
  C  C19  1  0.50000000  0.28888072  0.69439579  1
  C  C20  1  0.50000000  0.34923100  0.69484630  1
  C  C21  1  0.50000000  0.40943033  0.69482660  1
  C  C22  1  0.50000000  0.47091007  0.02603522  1
  C  C23  1  0.50000000  0.47060654  0.36020358  1
  C  C24  1  0.50000000  0.46960261  0.69454162  1
  C  C25  1  0.50000000  0.52997367  0.02725179  1
  C  C26  1  0.50000000  0.52999906  0.36149414  1
  C  C27  1  0.50000000  0.53005850  0.69467588  1
  C  C28  1  0.50000000  0.58901727  0.02600695  1
  C  C29  1  0.50000000  0.58938416  0.36026425  1
  C  C30  1  0.50000000  0.59042703  0.69440775  1
  C  C31  1  0.50000000  0.65058600  0.69475043  1
  C  C32  1  0.50000000  0.71108937  0.69468751  1
  C  C33  1  0.50000000  0.25979682  0.72319608  1
  C  C34  1  0.50000000  0.31888687  0.72221162  1
  C  C35  1  0.50000000  0.37919446  0.72220855  1
  C  C36  1  0.50000000  0.43957569  0.72222931  1
  C  C37  1  0.50000000  0.49990047  0.05488523  1
  C  C38  1  0.50000000  0.49985166  0.38921620  1
  C  C39  1  0.50000000  0.49987818  0.72233815  1
  C  C40  1  0.50000000  0.56003430  0.05484872  1
  C  C41  1  0.50000000  0.56012020  0.38922849  1
  C  C42  1  0.50000000  0.56010162  0.72227325  1
  C  C43  1  0.50000000  0.62057945  0.72212285  1
  C  C44  1  0.50000000  0.68101723  0.72223034  1
  C  C45  1  0.50000000  0.74030407  0.72327337  1
  C  C46  1  0.50000000  0.25980748  0.77687067  1
  C  C47  1  0.50000000  0.31889551  0.77776962  1
  C  C48  1  0.50000000  0.37919512  0.77776881  1
  C  C49  1  0.50000000  0.43957181  0.77774618  1
  C  C50  1  0.50000000  0.49984141  0.11077037  1
  C  C51  1  0.50000000  0.49990378  0.44509151  1
  C  C52  1  0.50000000  0.49987750  0.77762067  1
  C  C53  1  0.50000000  0.56013310  0.11076039  1
  C  C54  1  0.50000000  0.56002522  0.44513537  1
  C  C55  1  0.50000000  0.56010436  0.77768386  1
  C  C56  1  0.50000000  0.62058095  0.77783887  1
  C  C57  1  0.50000000  0.68101367  0.77774226  1
  C  C58  1  0.50000000  0.74029544  0.77677358  1
  C  C59  1  0.50000000  0.28890347  0.80562164  1
  C  C60  1  0.50000000  0.34923541  0.80514455  1
  C  C61  1  0.50000000  0.40942586  0.80515613  1
  C  C62  1  0.50000000  0.47060869  0.13983135  1
  C  C63  1  0.50000000  0.47089610  0.47390100  1
  C  C64  1  0.50000000  0.46960009  0.80542418  1
  C  C65  1  0.50000000  0.52999825  0.13849683  1
  C  C66  1  0.50000000  0.52996890  0.47273166  1
  C  C67  1  0.50000000  0.53006103  0.80527759  1
  C  C68  1  0.50000000  0.58938022  0.13978877  1
  C  C69  1  0.50000000  0.58902575  0.47393749  1
  C  C70  1  0.50000000  0.59042906  0.80555049  1
  C  C71  1  0.50000000  0.65058431  0.80522400  1
  C  C72  1  0.50000000  0.71107430  0.80531967  1
  C  C73  1  0.50000000  0.29004967  0.52763683  1
  C  C74  1  0.50000000  0.28888416  0.86215648  1
  C  C75  1  0.50000000  0.35003775  0.52944102  1
  C  C76  1  0.50000000  0.34926563  0.86061525  1
  C  C77  1  0.50000000  0.40962271  0.53031764  1
  C  C78  1  0.50000000  0.40945085  0.86044832  1
  C  C79  1  0.50000000  0.47063462  0.19316757  1
  C  C80  1  0.50000000  0.47002652  0.52774335  1
  C  C81  1  0.50000000  0.46953884  0.86081718  1
  C  C82  1  0.50000000  0.53000716  0.19429449  1
  C  C83  1  0.50000000  0.52999291  0.52816560  1
  C  C84  1  0.50000000  0.53003388  0.86099447  1
  C  C85  1  0.50000000  0.58937644  0.19314533  1
  C  C86  1  0.50000000  0.58991687  0.52777656  1
  C  C87  1  0.50000000  0.59046188  0.86069451  1
  C  C88  1  0.50000000  0.65033286  0.53007990  1
  C  C89  1  0.50000000  0.65062449  0.86065216  1
  C  C90  1  0.50000000  0.71011054  0.52844764  1
  C  C91  1  0.50000000  0.71119617  0.86166248  1
  C  C92  1  0.50000000  0.26067354  0.55404087  1
  C  C93  1  0.50000000  0.26007199  0.89159428  1
  C  C94  1  0.50000000  0.31983249  0.55532912  1
  C  C95  1  0.50000000  0.31932821  0.88885517  1
  C  C96  1  0.50000000  0.37941190  0.55664834  1
  C  C97  1  0.50000000  0.37932450  0.88766344  1
  C  C98  1  0.50000000  0.43919664  0.55589294  1
  C  C99  1  0.50000000  0.43959716  0.88815031  1
  C  C100  1  0.50000000  0.49992544  0.22212987  1
  C  C101  1  0.50000000  0.49999110  0.55613215  1
  C  C102  1  0.50000000  0.49996444  0.88869302  1
  C  C103  1  0.50000000  0.56009167  0.22211133  1
  C  C104  1  0.50000000  0.55999591  0.55611378  1
  C  C105  1  0.50000000  0.56006914  0.88863690  1
  C  C106  1  0.50000000  0.62077742  0.55587562  1
  C  C107  1  0.50000000  0.62054604  0.88824155  1
  C  C108  1  0.50000000  0.68050872  0.55628440  1
  C  C109  1  0.50000000  0.68081103  0.88829058  1
  C  C110  1  0.50000000  0.73958952  0.55470344  1
  C  C111  1  0.50000000  0.74008079  0.89105686  1
  C  C112  1  0.50000000  0.26006521  0.60841972  1
  C  C113  1  0.50000000  0.26069335  0.94595897  1
  C  C114  1  0.50000000  0.31931932  0.61116042  1
  C  C115  1  0.50000000  0.31984657  0.94470056  1
  C  C116  1  0.50000000  0.37932929  0.61234049  1
  C  C117  1  0.50000000  0.37941198  0.94336261  1
  C  C118  1  0.50000000  0.43959991  0.61181280  1
  C  C119  1  0.50000000  0.43920486  0.94406502  1
  C  C120  1  0.50000000  0.49991734  0.27788960  1
  C  C121  1  0.50000000  0.49995899  0.61125586  1
  C  C122  1  0.50000000  0.50000152  0.94381763  1
  C  C123  1  0.50000000  0.56010130  0.27790702  1
  C  C124  1  0.50000000  0.56006587  0.61130668  1
  C  C125  1  0.50000000  0.55999170  0.94383278  1
  C  C126  1  0.50000000  0.62054448  0.61171667  1
  C  C127  1  0.50000000  0.62076804  0.94408070  1
  C  C128  1  0.50000000  0.68080914  0.61172134  1
  C  C129  1  0.50000000  0.68050827  0.94373897  1
  C  C130  1  0.50000000  0.74010574  0.60898245  1
  C  C131  1  0.50000000  0.73955294  0.94531883  1
  H  H132  1  0.50000000  0.23639012  0.70310139  1
  H  H133  1  0.50000000  0.76365172  0.70302673  1
  H  H134  1  0.50000000  0.23642502  0.79703287  1
  H  H135  1  0.50000000  0.76362142  0.79707197  1
  H  H136  1  0.50000000  0.23771140  0.53240495  1
  H  H137  1  0.50000000  0.23633800  0.87248082  1
  H  H138  1  0.50000000  0.76251690  0.53294968  1
  H  H139  1  0.50000000  0.76379578  0.87190034  1
  H  H140  1  0.50000000  0.23639350  0.62773874  1
  H  H141  1  0.50000000  0.23771963  0.96756996  1
  H  H142  1  0.50000000  0.76374950  0.62838445  1
  H  H143  1  0.50000000  0.76253264  0.96690956  1
  H  H144  1  0.50000000  0.29069532  0.01486814  1
  H  H145  1  0.50000000  0.35057550  0.01312277  1
  H  H146  1  0.50000000  0.40874527  0.01195120  1
  H  H147  1  0.50000000  0.44723574  0.28671580  1
  H  H148  1  0.50000000  0.61280705  0.28679787  1
  H  H149  1  0.50000000  0.65126922  0.01220299  1
  H  H150  1  0.50000000  0.70932840  0.01412255  1
  H  H151  1  0.50000000  0.44790460  0.04692255  1
  H  H152  1  0.50000000  0.44715924  0.38017001  1
  H  H153  1  0.50000000  0.61197805  0.04697252  1
  H  H154  1  0.50000000  0.61286446  0.38017260  1
  H  H155  1  0.50000000  0.44709348  0.12009221  1
  H  H156  1  0.50000000  0.44793873  0.45284027  1
  H  H157  1  0.50000000  0.61292570  0.12009708  1
  H  H158  1  0.50000000  0.61194219  0.45281626  1
  H  H159  1  0.50000000  0.29070904  0.48517484  1
  H  H160  1  0.50000000  0.35058426  0.48695439  1
  H  H161  1  0.50000000  0.40874045  0.48796655  1
  H  H162  1  0.50000000  0.44724321  0.21324827  1
  H  H163  1  0.50000000  0.61279847  0.21319676  1
  H  H164  1  0.50000000  0.65128160  0.48772502  1
  H  H165  1  0.50000000  0.70931868  0.48600757  1
