# generated using pymatgen
data_H3C11
_symmetry_space_group_name_H-M   'P 1'
_cell_length_a   10.00000000
_cell_length_b   41.10890000
_cell_length_c   26.34024635
_cell_angle_alpha   90.00000000
_cell_angle_beta   90.00000000
_cell_angle_gamma   90.00000000
_symmetry_Int_Tables_number   1
_chemical_formula_structural   H3C11
_chemical_formula_sum   'H36 C132'
_cell_volume   10828.18553000
_cell_formula_units_Z   12
loop_
 _symmetry_equiv_pos_site_id
 _symmetry_equiv_pos_as_xyz
  1  'x, y, z'
loop_
 _atom_site_type_symbol
 _atom_site_label
 _atom_site_symmetry_multiplicity
 _atom_site_fract_x
 _atom_site_fract_y
 _atom_site_fract_z
 _atom_site_occupancy
  C  C0  1  0.50000000  0.28874579  0.64006779  1
  C  C1  1  0.50000000  0.29006564  0.96804729  1
  C  C2  1  0.50000000  0.34915596  0.64171895  1
  C  C3  1  0.50000000  0.34994564  0.96593352  1
  C  C4  1  0.50000000  0.40924119  0.64297350  1
  C  C5  1  0.50000000  0.40966637  0.96418365  1
  C  C6  1  0.50000000  0.47011307  0.64162155  1
  C  C7  1  0.50000000  0.46849291  0.96298307  1
  C  C8  1  0.50000000  0.53001935  0.30477433  1
  C  C9  1  0.50000000  0.53035760  0.63965862  1
  C  C10  1  0.50000000  0.52955629  0.97253884  1
  C  C11  1  0.50000000  0.58963691  0.30470853  1
  C  C12  1  0.50000000  0.58992655  0.63961953  1
  C  C13  1  0.50000000  0.59061447  0.97272771  1
  C  C14  1  0.50000000  0.65014032  0.64124687  1
  C  C15  1  0.50000000  0.65173751  0.96350963  1
  C  C16  1  0.50000000  0.71135677  0.64179652  1
  C  C17  1  0.50000000  0.71088371  0.96518122  1
  C  C18  1  0.50000000  0.28866629  0.69548556  1
  C  C19  1  0.50000000  0.34906918  0.69604355  1
  C  C20  1  0.50000000  0.40940359  0.69677633  1
  C  C21  1  0.50000000  0.47018931  0.69604259  1
  C  C22  1  0.50000000  0.52970758  0.02815170  1
  C  C23  1  0.50000000  0.53045494  0.35930502  1
  C  C24  1  0.50000000  0.53035291  0.69483093  1
  C  C25  1  0.50000000  0.59028565  0.02832171  1
  C  C26  1  0.50000000  0.58930769  0.35919508  1
  C  C27  1  0.50000000  0.59001410  0.69470048  1
  C  C28  1  0.50000000  0.65001025  0.69574233  1
  C  C29  1  0.50000000  0.71083307  0.69655307  1
  C  C30  1  0.50000000  0.25959598  0.72371066  1
  C  C31  1  0.50000000  0.31871956  0.72278455  1
  C  C32  1  0.50000000  0.37904108  0.72296118  1
  C  C33  1  0.50000000  0.43992265  0.72292461  1
  C  C34  1  0.50000000  0.50159403  0.06058466  1
  C  C35  1  0.50000000  0.50156287  0.38754544  1
  C  C36  1  0.50000000  0.50038719  0.72270983  1
  C  C37  1  0.50000000  0.55995932  0.05595316  1
  C  C38  1  0.50000000  0.55990160  0.38812343  1
  C  C39  1  0.50000000  0.56016627  0.72244536  1
  C  C40  1  0.50000000  0.61830297  0.06095855  1
  C  C41  1  0.50000000  0.61827922  0.38726153  1
  C  C42  1  0.50000000  0.61999545  0.72251176  1
  C  C43  1  0.50000000  0.68041991  0.72282156  1
  C  C44  1  0.50000000  0.74009830  0.72386412  1
  C  C45  1  0.50000000  0.25960395  0.77635283  1
  C  C46  1  0.50000000  0.31871897  0.77725318  1
  C  C47  1  0.50000000  0.37904308  0.77708077  1
  C  C48  1  0.50000000  0.43992197  0.77709449  1
  C  C49  1  0.50000000  0.50158806  0.11245257  1
  C  C50  1  0.50000000  0.50158394  0.43942618  1
  C  C51  1  0.50000000  0.50039268  0.77731922  1
  C  C52  1  0.50000000  0.55991131  0.11187546  1
  C  C53  1  0.50000000  0.55993140  0.44404497  1
  C  C54  1  0.50000000  0.56016577  0.77760858  1
  C  C55  1  0.50000000  0.61827189  0.11280394  1
  C  C56  1  0.50000000  0.61826329  0.43911269  1
  C  C57  1  0.50000000  0.61999002  0.77751050  1
  C  C58  1  0.50000000  0.68041386  0.77715201  1
  C  C59  1  0.50000000  0.74009539  0.77607037  1
  C  C60  1  0.50000000  0.28866605  0.80456235  1
  C  C61  1  0.50000000  0.34906989  0.80399301  1
  C  C62  1  0.50000000  0.40941909  0.80325115  1
  C  C63  1  0.50000000  0.47019629  0.80397293  1
  C  C64  1  0.50000000  0.53047169  0.14069678  1
  C  C65  1  0.50000000  0.52969406  0.47185956  1
  C  C66  1  0.50000000  0.53034734  0.80521746  1
  C  C67  1  0.50000000  0.58929495  0.14083616  1
  C  C68  1  0.50000000  0.59024362  0.47170340  1
  C  C69  1  0.50000000  0.59001450  0.80534114  1
  C  C70  1  0.50000000  0.65001437  0.80424951  1
  C  C71  1  0.50000000  0.71081926  0.80338704  1
  C  C72  1  0.50000000  0.29006160  0.53202642  1
  C  C73  1  0.50000000  0.28875582  0.85998923  1
  C  C74  1  0.50000000  0.34993144  0.53406881  1
  C  C75  1  0.50000000  0.34916606  0.85831132  1
  C  C76  1  0.50000000  0.40963544  0.53577339  1
  C  C77  1  0.50000000  0.40925755  0.85705117  1
  C  C78  1  0.50000000  0.46847537  0.53708007  1
  C  C79  1  0.50000000  0.47012852  0.85837098  1
  C  C80  1  0.50000000  0.53003482  0.19522284  1
  C  C81  1  0.50000000  0.52955896  0.52749074  1
  C  C82  1  0.50000000  0.53036556  0.86038924  1
  C  C83  1  0.50000000  0.58961493  0.19530891  1
  C  C84  1  0.50000000  0.59060360  0.52730859  1
  C  C85  1  0.50000000  0.58993996  0.86043857  1
  C  C86  1  0.50000000  0.65169730  0.53656082  1
  C  C87  1  0.50000000  0.65013999  0.85874514  1
  C  C88  1  0.50000000  0.71078349  0.53466730  1
  C  C89  1  0.50000000  0.71133098  0.85812167  1
  C  C90  1  0.50000000  0.26069222  0.55778958  1
  C  C91  1  0.50000000  0.25999669  0.88896688  1
  C  C92  1  0.50000000  0.31982824  0.55932250  1
  C  C93  1  0.50000000  0.31923104  0.88599314  1
  C  C94  1  0.50000000  0.37948046  0.56079002  1
  C  C95  1  0.50000000  0.37932231  0.88444810  1
  C  C96  1  0.50000000  0.43886968  0.56308105  1
  C  C97  1  0.50000000  0.43942929  0.88315751  1
  C  C98  1  0.50000000  0.50064382  0.22381362  1
  C  C99  1  0.50000000  0.49942254  0.55813702  1
  C  C100  1  0.50000000  0.50010540  0.88674147  1
  C  C101  1  0.50000000  0.55981084  0.22276618  1
  C  C102  1  0.50000000  0.56010483  0.55483644  1
  C  C103  1  0.50000000  0.56015264  0.88888382  1
  C  C104  1  0.50000000  0.61901113  0.22384737  1
  C  C105  1  0.50000000  0.62080585  0.55784277  1
  C  C106  1  0.50000000  0.62027816  0.88698679  1
  C  C107  1  0.50000000  0.68131406  0.56247872  1
  C  C108  1  0.50000000  0.68098901  0.88392282  1
  C  C109  1  0.50000000  0.74021853  0.56015765  1
  C  C110  1  0.50000000  0.74035412  0.88640036  1
  C  C111  1  0.50000000  0.25998562  0.61111108  1
  C  C112  1  0.50000000  0.26069347  0.94229580  1
  C  C113  1  0.50000000  0.31922166  0.61404592  1
  C  C114  1  0.50000000  0.31983612  0.94071136  1
  C  C115  1  0.50000000  0.37930666  0.61557255  1
  C  C116  1  0.50000000  0.37949828  0.93921650  1
  C  C117  1  0.50000000  0.43940158  0.61685517  1
  C  C118  1  0.50000000  0.43892161  0.93691615  1
  C  C119  1  0.50000000  0.50063720  0.27611335  1
  C  C120  1  0.50000000  0.50009736  0.61326937  1
  C  C121  1  0.50000000  0.49942115  0.94186323  1
  C  C122  1  0.50000000  0.55981470  0.27727327  1
  C  C123  1  0.50000000  0.56014864  0.61117900  1
  C  C124  1  0.50000000  0.56010942  0.94521506  1
  C  C125  1  0.50000000  0.61902089  0.27609748  1
  C  C126  1  0.50000000  0.62026396  0.61304271  1
  C  C127  1  0.50000000  0.62084374  0.94218762  1
  C  C128  1  0.50000000  0.68098292  0.61607183  1
  C  C129  1  0.50000000  0.68134039  0.93751132  1
  C  C130  1  0.50000000  0.74034627  0.61336261  1
  C  C131  1  0.50000000  0.74029725  0.93959227  1
  H  H132  1  0.50000000  0.23615996  0.70407351  1
  H  H133  1  0.50000000  0.76336792  0.70384008  1
  H  H134  1  0.50000000  0.23616992  0.79602029  1
  H  H135  1  0.50000000  0.76337647  0.79604627  1
  H  H136  1  0.50000000  0.23773886  0.53660918  1
  H  H137  1  0.50000000  0.23633419  0.87004350  1
  H  H138  1  0.50000000  0.76328384  0.53923254  1
  H  H139  1  0.50000000  0.76382226  0.86691537  1
  H  H140  1  0.50000000  0.23628983  0.62997308  1
  H  H141  1  0.50000000  0.23778460  0.96362814  1
  H  H142  1  0.50000000  0.76387370  0.63263614  1
  H  H143  1  0.50000000  0.76342210  0.96032599  1
  H  H144  1  0.50000000  0.29081502  0.00966696  1
  H  H145  1  0.50000000  0.35049302  0.00753318  1
  H  H146  1  0.50000000  0.41023856  0.00579731  1
  H  H147  1  0.50000000  0.46428999  0.00281238  1
  H  H148  1  0.50000000  0.65574062  0.00342468  1
  H  H149  1  0.50000000  0.70987653  0.00677212  1
  H  H150  1  0.50000000  0.47699110  0.04730121  1
  H  H151  1  0.50000000  0.47789009  0.36868197  1
  H  H152  1  0.50000000  0.64290142  0.04778526  1
  H  H153  1  0.50000000  0.64198644  0.36845067  1
  H  H154  1  0.50000000  0.47790088  0.13124377  1
  H  H155  1  0.50000000  0.47701445  0.45282487  1
  H  H156  1  0.50000000  0.64197944  0.13160284  1
  H  H157  1  0.50000000  0.64280376  0.45250558  1
  H  H158  1  0.50000000  0.29083459  0.49042812  1
  H  H159  1  0.50000000  0.35052447  0.49246516  1
  H  H160  1  0.50000000  0.41022734  0.49410376  1
  H  H161  1  0.50000000  0.46421216  0.49726706  1
  H  H162  1  0.50000000  0.65576831  0.49671372  1
  H  H163  1  0.50000000  0.70977404  0.49304230  1
  H  H164  1  0.50000000  0.47717562  0.20430395  1
  H  H165  1  0.50000000  0.64243631  0.20426688  1
  H  H166  1  0.50000000  0.47712705  0.29548252  1
  H  H167  1  0.50000000  0.64248634  0.29554250  1
