# generated using pymatgen
data_H22C57
_symmetry_space_group_name_H-M   'P 1'
_cell_length_a   20.00000000
_cell_length_b   37.22700000
_cell_length_c   26.16446715
_cell_angle_alpha   90.00000000
_cell_angle_beta   90.00000000
_cell_angle_gamma   90.00000000
_symmetry_Int_Tables_number   1
_chemical_formula_structural   H22C57
_chemical_formula_sum   'H44 C114'
_cell_volume   19480.49237296
_cell_formula_units_Z   2
loop_
 _symmetry_equiv_pos_site_id
 _symmetry_equiv_pos_as_xyz
  1  'x, y, z'
loop_
 _atom_site_type_symbol
 _atom_site_label
 _atom_site_symmetry_multiplicity
 _atom_site_fract_x
 _atom_site_fract_y
 _atom_site_fract_z
 _atom_site_occupancy
  C  C0  1  0.50000000  0.31809930  0.22155660  1
  C  C1  1  0.50000000  0.31728157  0.55650347  1
  C  C2  1  0.50000000  0.31721183  0.88768133  1
  C  C3  1  0.50000000  0.38430531  0.55734894  1
  C  C4  1  0.50000000  0.38374989  0.88745858  1
  C  C5  1  0.50000000  0.45043814  0.55898175  1
  C  C6  1  0.50000000  0.45008095  0.88612302  1
  C  C7  1  0.50000000  0.51646299  0.55873509  1
  C  C8  1  0.50000000  0.51634037  0.88606313  1
  C  C9  1  0.50000000  0.58255389  0.55897561  1
  C  C10  1  0.50000000  0.58269441  0.88595314  1
  C  C11  1  0.50000000  0.64892357  0.55755480  1
  C  C12  1  0.50000000  0.64924740  0.88684368  1
  C  C13  1  0.50000000  0.71404214  0.22362229  1
  C  C14  1  0.50000000  0.71556640  0.55961273  1
  C  C15  1  0.50000000  0.71504772  0.88826317  1
  C  C16  1  0.50000000  0.31809801  0.27844109  1
  C  C17  1  0.50000000  0.31721820  0.61232279  1
  C  C18  1  0.50000000  0.31726123  0.94349476  1
  C  C19  1  0.50000000  0.38374167  0.61251611  1
  C  C20  1  0.50000000  0.38430614  0.94262774  1
  C  C21  1  0.50000000  0.45009116  0.61386746  1
  C  C22  1  0.50000000  0.45042915  0.94102207  1
  C  C23  1  0.50000000  0.51635153  0.61393042  1
  C  C24  1  0.50000000  0.51643587  0.94128915  1
  C  C25  1  0.50000000  0.58271114  0.61402525  1
  C  C26  1  0.50000000  0.58252664  0.94102978  1
  C  C27  1  0.50000000  0.64925748  0.61309633  1
  C  C28  1  0.50000000  0.64888405  0.94238519  1
  C  C29  1  0.50000000  0.71406215  0.27644752  1
  C  C30  1  0.50000000  0.71504877  0.61176074  1
  C  C31  1  0.50000000  0.71551682  0.94044351  1
  C  C32  1  0.50000000  0.28598562  0.30710060  1
  C  C33  1  0.50000000  0.28508339  0.64067572  1
  C  C34  1  0.50000000  0.28515924  0.97244678  1
  C  C35  1  0.50000000  0.35012206  0.30738712  1
  C  C36  1  0.50000000  0.35037453  0.63981727  1
  C  C37  1  0.50000000  0.35025244  0.97090552  1
  C  C38  1  0.50000000  0.41668116  0.64033953  1
  C  C39  1  0.50000000  0.41731889  0.96755328  1
  C  C40  1  0.50000000  0.48322618  0.64099991  1
  C  C41  1  0.50000000  0.48341728  0.96733683  1
  C  C42  1  0.50000000  0.54952680  0.64104300  1
  C  C43  1  0.50000000  0.54979064  0.96732206  1
  C  C44  1  0.50000000  0.61589930  0.64062932  1
  C  C45  1  0.50000000  0.61593867  0.96723260  1
  C  C46  1  0.50000000  0.68334977  0.30841790  1
  C  C47  1  0.50000000  0.68206823  0.64014261  1
  C  C48  1  0.50000000  0.68320969  0.97017227  1
  C  C49  1  0.50000000  0.28515818  0.02542928  1
  C  C50  1  0.50000000  0.28586700  0.36045919  1
  C  C51  1  0.50000000  0.28500477  0.69368806  1
  C  C52  1  0.50000000  0.34939262  0.02487378  1
  C  C53  1  0.50000000  0.34998278  0.36073434  1
  C  C54  1  0.50000000  0.35028686  0.69483601  1
  C  C55  1  0.50000000  0.41654240  0.69532738  1
  C  C56  1  0.50000000  0.48309560  0.69568497  1
  C  C57  1  0.50000000  0.54952027  0.69561192  1
  C  C58  1  0.50000000  0.61585515  0.69534277  1
  C  C59  1  0.50000000  0.68448741  0.02346968  1
  C  C60  1  0.50000000  0.68385824  0.36129100  1
  C  C61  1  0.50000000  0.68217529  0.69511751  1
  C  C62  1  0.50000000  0.31763805  0.05364377  1
  C  C63  1  0.50000000  0.31786396  0.38940766  1
  C  C64  1  0.50000000  0.31711570  0.72217467  1
  C  C65  1  0.50000000  0.38348363  0.72253275  1
  C  C66  1  0.50000000  0.44977464  0.72265402  1
  C  C67  1  0.50000000  0.51624144  0.72269484  1
  C  C68  1  0.50000000  0.58271487  0.72259230  1
  C  C69  1  0.50000000  0.64904866  0.72260841  1
  C  C70  1  0.50000000  0.71536908  0.05448426  1
  C  C71  1  0.50000000  0.71496963  0.39231725  1
  C  C72  1  0.50000000  0.71456124  0.72363973  1
  C  C73  1  0.50000000  0.31792111  0.11055422  1
  C  C74  1  0.50000000  0.31759460  0.44633941  1
  C  C75  1  0.50000000  0.31709176  0.77785344  1
  C  C76  1  0.50000000  0.38348176  0.77743752  1
  C  C77  1  0.50000000  0.44977250  0.77728556  1
  C  C78  1  0.50000000  0.51623880  0.77724508  1
  C  C79  1  0.50000000  0.58270594  0.77734224  1
  C  C80  1  0.50000000  0.64904763  0.77734716  1
  C  C81  1  0.50000000  0.71484222  0.10759239  1
  C  C82  1  0.50000000  0.71545539  0.44541727  1
  C  C83  1  0.50000000  0.71457074  0.77623307  1
  C  C84  1  0.50000000  0.28592046  0.13947973  1
  C  C85  1  0.50000000  0.28512929  0.47461756  1
  C  C86  1  0.50000000  0.28497470  0.80635914  1
  C  C87  1  0.50000000  0.35001482  0.13927924  1
  C  C88  1  0.50000000  0.34937193  0.47509715  1
  C  C89  1  0.50000000  0.35028090  0.80512964  1
  C  C90  1  0.50000000  0.41654337  0.80461633  1
  C  C91  1  0.50000000  0.48309401  0.80426749  1
  C  C92  1  0.50000000  0.54951319  0.80433525  1
  C  C93  1  0.50000000  0.61584726  0.80459279  1
  C  C94  1  0.50000000  0.68377323  0.13882202  1
  C  C95  1  0.50000000  0.68458073  0.47650757  1
  C  C96  1  0.50000000  0.68220089  0.80481729  1
  C  C97  1  0.50000000  0.28600907  0.19282820  1
  C  C98  1  0.50000000  0.28517328  0.52760423  1
  C  C99  1  0.50000000  0.28506305  0.85937999  1
  C  C100  1  0.50000000  0.35012493  0.19261859  1
  C  C101  1  0.50000000  0.35026444  0.52906496  1
  C  C102  1  0.50000000  0.35037014  0.86017104  1
  C  C103  1  0.50000000  0.41733719  0.53244560  1
  C  C104  1  0.50000000  0.41667937  0.85961829  1
  C  C105  1  0.50000000  0.48344000  0.53269318  1
  C  C106  1  0.50000000  0.48321948  0.85897475  1
  C  C107  1  0.50000000  0.54981750  0.53270895  1
  C  C108  1  0.50000000  0.54951642  0.85891638  1
  C  C109  1  0.50000000  0.61597257  0.53275096  1
  C  C110  1  0.50000000  0.61588569  0.85932898  1
  C  C111  1  0.50000000  0.68331223  0.19171139  1
  C  C112  1  0.50000000  0.68328295  0.52981283  1
  C  C113  1  0.50000000  0.68208057  0.85981943  1
  H  H114  1  0.50000000  0.74043795  0.20501912  1
  H  H115  1  0.50000000  0.74154544  0.54004918  1
  H  H116  1  0.50000000  0.74069275  0.86798105  1
  H  H117  1  0.50000000  0.74049064  0.29501951  1
  H  H118  1  0.50000000  0.74064879  0.63218080  1
  H  H119  1  0.50000000  0.74147547  0.96004697  1
  H  H120  1  0.50000000  0.25999190  0.28755358  1
  H  H121  1  0.50000000  0.25918369  0.62100112  1
  H  H122  1  0.50000000  0.25917327  0.95297753  1
  H  H123  1  0.50000000  0.25923504  0.04509103  1
  H  H124  1  0.50000000  0.25978214  0.37972736  1
  H  H125  1  0.50000000  0.25908461  0.71329237  1
  H  H126  1  0.50000000  0.74196761  0.03641409  1
  H  H127  1  0.50000000  0.74118639  0.37318156  1
  H  H128  1  0.50000000  0.74043575  0.70396976  1
  H  H129  1  0.50000000  0.74106469  0.12663471  1
  H  H130  1  0.50000000  0.74207057  0.46343110  1
  H  H131  1  0.50000000  0.74049386  0.79578933  1
  H  H132  1  0.50000000  0.25982330  0.12025484  1
  H  H133  1  0.50000000  0.25918743  0.45500462  1
  H  H134  1  0.50000000  0.25902273  0.78679681  1
  H  H135  1  0.50000000  0.25995093  0.21218131  1
  H  H136  1  0.50000000  0.25925207  0.54724794  1
  H  H137  1  0.50000000  0.25918266  0.87915095  1
  H  H138  1  0.50000000  0.37623814  0.28816241  1
  H  H139  1  0.50000000  0.41880993  0.00932761  1
  H  H140  1  0.50000000  0.48324393  0.00928565  1
  H  H141  1  0.50000000  0.54976686  0.00927197  1
  H  H142  1  0.50000000  0.61460685  0.00904060  1
  H  H143  1  0.50000000  0.65680792  0.29023950  1
  H  H144  1  0.50000000  0.37493611  0.04524917  1
  H  H145  1  0.50000000  0.37602682  0.38018540  1
  H  H146  1  0.50000000  0.65882142  0.04383168  1
  H  H147  1  0.50000000  0.65764219  0.38037557  1
  H  H148  1  0.50000000  0.37611463  0.11998816  1
  H  H149  1  0.50000000  0.37491325  0.45471144  1
  H  H150  1  0.50000000  0.65745872  0.11989939  1
  H  H151  1  0.50000000  0.65883728  0.45632525  1
  H  H152  1  0.50000000  0.37627118  0.21175540  1
  H  H153  1  0.50000000  0.41880479  0.49067804  1
  H  H154  1  0.50000000  0.48327175  0.49075602  1
  H  H155  1  0.50000000  0.54979798  0.49076133  1
  H  H156  1  0.50000000  0.61461007  0.49094398  1
  H  H157  1  0.50000000  0.65680931  0.21007359  1
