# generated using pymatgen
data_H4C15
_symmetry_space_group_name_H-M   'P 1'
_cell_length_a   20.00000000
_cell_length_b   40.19450000
_cell_length_c   25.88109414
_cell_angle_alpha   90.00000000
_cell_angle_beta   90.00000000
_cell_angle_gamma   90.00000000
_symmetry_Int_Tables_number   1
_chemical_formula_structural   H4C15
_chemical_formula_sum   'H32 C120'
_cell_volume   20805.55277175
_cell_formula_units_Z   8
loop_
 _symmetry_equiv_pos_site_id
 _symmetry_equiv_pos_as_xyz
  1  'x, y, z'
loop_
 _atom_site_type_symbol
 _atom_site_label
 _atom_site_symmetry_multiplicity
 _atom_site_fract_x
 _atom_site_fract_y
 _atom_site_fract_z
 _atom_site_occupancy
  C  C0  1  0.50000000  0.28540335  0.60980583  1
  C  C1  1  0.50000000  0.28566666  0.77682007  1
  C  C2  1  0.50000000  0.28566066  0.94339624  1
  C  C3  1  0.50000000  0.31648184  0.13939919  1
  C  C4  1  0.50000000  0.31545443  0.63878281  1
  C  C5  1  0.50000000  0.31642161  0.30663546  1
  C  C6  1  0.50000000  0.31558252  0.80533103  1
  C  C7  1  0.50000000  0.31635689  0.47411814  1
  C  C8  1  0.50000000  0.31606349  0.97125068  1
  C  C9  1  0.50000000  0.28555651  0.55658358  1
  C  C10  1  0.50000000  0.28559042  0.72345982  1
  C  C11  1  0.50000000  0.28552525  0.89019964  1
  C  C12  1  0.50000000  0.34603583  0.11079514  1
  C  C13  1  0.50000000  0.34629428  0.61180875  1
  C  C14  1  0.50000000  0.34607099  0.27817171  1
  C  C15  1  0.50000000  0.34631883  0.77771809  1
  C  C16  1  0.50000000  0.34567146  0.44574941  1
  C  C17  1  0.50000000  0.34663207  0.94337420  1
  C  C18  1  0.50000000  0.37694552  0.13835455  1
  C  C19  1  0.50000000  0.37729760  0.63945776  1
  C  C20  1  0.50000000  0.37684786  0.30591088  1
  C  C21  1  0.50000000  0.37729394  0.80516059  1
  C  C22  1  0.50000000  0.37671603  0.47328801  1
  C  C23  1  0.50000000  0.37723237  0.97139728  1
  C  C24  1  0.50000000  0.31653022  0.02589261  1
  C  C25  1  0.50000000  0.31595389  0.52874300  1
  C  C26  1  0.50000000  0.31655134  0.19317674  1
  C  C27  1  0.50000000  0.31545990  0.69476079  1
  C  C28  1  0.50000000  0.31631953  0.36043513  1
  C  C29  1  0.50000000  0.31557848  0.86127973  1
  C  C30  1  0.50000000  0.34587901  0.05417445  1
  C  C31  1  0.50000000  0.34652162  0.55661094  1
  C  C32  1  0.50000000  0.34614170  0.22172487  1
  C  C33  1  0.50000000  0.34626838  0.72222503  1
  C  C34  1  0.50000000  0.34584874  0.38909156  1
  C  C35  1  0.50000000  0.34640569  0.88818836  1
  C  C36  1  0.50000000  0.40780647  0.11070593  1
  C  C37  1  0.50000000  0.40783788  0.61185298  1
  C  C38  1  0.50000000  0.40769374  0.27826235  1
  C  C39  1  0.50000000  0.40799976  0.77764054  1
  C  C40  1  0.50000000  0.40748392  0.44586779  1
  C  C41  1  0.50000000  0.40792980  0.94352032  1
  C  C42  1  0.50000000  0.43735108  0.13930508  1
  C  C43  1  0.50000000  0.43876470  0.63927348  1
  C  C44  1  0.50000000  0.43721672  0.30699552  1
  C  C45  1  0.50000000  0.43874573  0.80513242  1
  C  C46  1  0.50000000  0.43702056  0.47406252  1
  C  C47  1  0.50000000  0.43831503  0.97139248  1
  C  C48  1  0.50000000  0.37693356  0.02664859  1
  C  C49  1  0.50000000  0.37709898  0.52852583  1
  C  C50  1  0.50000000  0.37695252  0.19404193  1
  C  C51  1  0.50000000  0.37723806  0.69470934  1
  C  C52  1  0.50000000  0.37676461  0.36158097  1
  C  C53  1  0.50000000  0.37736523  0.86041855  1
  C  C54  1  0.50000000  0.40772246  0.05405538  1
  C  C55  1  0.50000000  0.40785995  0.55628862  1
  C  C56  1  0.50000000  0.40776826  0.22174914  1
  C  C57  1  0.50000000  0.40797228  0.72216664  1
  C  C58  1  0.50000000  0.40758204  0.38930512  1
  C  C59  1  0.50000000  0.40789582  0.88795984  1
  C  C60  1  0.50000000  0.46946783  0.61176101  1
  C  C61  1  0.50000000  0.46950657  0.77742931  1
  C  C62  1  0.50000000  0.46982881  0.94351357  1
  C  C63  1  0.50000000  0.50028850  0.63941701  1
  C  C64  1  0.50000000  0.50026027  0.80478494  1
  C  C65  1  0.50000000  0.50022688  0.96909062  1
  C  C66  1  0.50000000  0.43721422  0.02566322  1
  C  C67  1  0.50000000  0.43824241  0.52833938  1
  C  C68  1  0.50000000  0.43736030  0.19315214  1
  C  C69  1  0.50000000  0.43870948  0.69458936  1
  C  C70  1  0.50000000  0.43714484  0.36080690  1
  C  C71  1  0.50000000  0.43879562  0.86044269  1
  C  C72  1  0.50000000  0.46978930  0.55613908  1
  C  C73  1  0.50000000  0.46950229  0.72219225  1
  C  C74  1  0.50000000  0.46949863  0.88788374  1
  C  C75  1  0.50000000  0.53103650  0.61237445  1
  C  C76  1  0.50000000  0.53103465  0.77739658  1
  C  C77  1  0.50000000  0.53104888  0.94271769  1
  C  C78  1  0.50000000  0.56184871  0.63959910  1
  C  C79  1  0.50000000  0.56182658  0.80471700  1
  C  C80  1  0.50000000  0.56134483  0.96953024  1
  C  C81  1  0.50000000  0.50017195  0.53046475  1
  C  C82  1  0.50000000  0.50026408  0.69478107  1
  C  C83  1  0.50000000  0.50027893  0.86013214  1
  C  C84  1  0.50000000  0.53106785  0.55673453  1
  C  C85  1  0.50000000  0.53105518  0.72213051  1
  C  C86  1  0.50000000  0.53100738  0.88712629  1
  C  C87  1  0.50000000  0.59249639  0.61195678  1
  C  C88  1  0.50000000  0.59270667  0.77748660  1
  C  C89  1  0.50000000  0.59215124  0.94342569  1
  C  C90  1  0.50000000  0.62324089  0.63908187  1
  C  C91  1  0.50000000  0.62326317  0.80500867  1
  C  C92  1  0.50000000  0.62252431  0.97028980  1
  C  C93  1  0.50000000  0.56140395  0.52992731  1
  C  C94  1  0.50000000  0.56187097  0.69480561  1
  C  C95  1  0.50000000  0.56178913  0.85989417  1
  C  C96  1  0.50000000  0.59224067  0.55604138  1
  C  C97  1  0.50000000  0.59274413  0.72206277  1
  C  C98  1  0.50000000  0.59241463  0.88752567  1
  C  C99  1  0.50000000  0.65393118  0.61116459  1
  C  C100  1  0.50000000  0.65422020  0.77755156  1
  C  C101  1  0.50000000  0.65327068  0.94426845  1
  C  C102  1  0.50000000  0.68502067  0.63791985  1
  C  C103  1  0.50000000  0.68489374  0.80536544  1
  C  C104  1  0.50000000  0.68384988  0.97179487  1
  C  C105  1  0.50000000  0.62268663  0.52932046  1
  C  C106  1  0.50000000  0.62331841  0.69453349  1
  C  C107  1  0.50000000  0.62315724  0.86045011  1
  C  C108  1  0.50000000  0.65342210  0.55541548  1
  C  C109  1  0.50000000  0.65427078  0.72201684  1
  C  C110  1  0.50000000  0.65378988  0.88848663  1
  C  C111  1  0.50000000  0.71453339  0.60871970  1
  C  C112  1  0.50000000  0.71464694  0.77670460  1
  C  C113  1  0.50000000  0.71379510  0.94525170  1
  C  C114  1  0.50000000  0.68403003  0.52799073  1
  C  C115  1  0.50000000  0.68500396  0.69432640  1
  C  C116  1  0.50000000  0.68486437  0.86175185  1
  C  C117  1  0.50000000  0.71400309  0.55445280  1
  C  C118  1  0.50000000  0.71470062  0.72315194  1
  C  C119  1  0.50000000  0.71434525  0.89100586  1
  H  H120  1  0.50000000  0.26140422  0.62967986  1
  H  H121  1  0.50000000  0.26174351  0.79690713  1
  H  H122  1  0.50000000  0.26212893  0.96482469  1
  H  H123  1  0.50000000  0.26210622  0.53487247  1
  H  H124  1  0.50000000  0.26155389  0.70369850  1
  H  H125  1  0.50000000  0.26155121  0.87025690  1
  H  H126  1  0.50000000  0.73867857  0.62816786  1
  H  H127  1  0.50000000  0.73862133  0.79666000  1
  H  H128  1  0.50000000  0.73740137  0.96645582  1
  H  H129  1  0.50000000  0.73754913  0.53304969  1
  H  H130  1  0.50000000  0.73871743  0.70332769  1
  H  H131  1  0.50000000  0.73855116  0.87175710  1
  H  H132  1  0.50000000  0.68344103  0.48565890  1
  H  H133  1  0.50000000  0.29240840  0.11969549  1
  H  H134  1  0.50000000  0.29243493  0.28674608  1
  H  H135  1  0.50000000  0.29215599  0.45480639  1
  H  H136  1  0.50000000  0.29239453  0.04541876  1
  H  H137  1  0.50000000  0.29259053  0.21307772  1
  H  H138  1  0.50000000  0.29224272  0.38015291  1
  H  H139  1  0.50000000  0.68326946  0.01417376  1
  H  H140  1  0.50000000  0.62251524  0.48694169  1
  H  H141  1  0.50000000  0.62219228  0.01268205  1
  H  H142  1  0.50000000  0.56121305  0.01191278  1
  H  H143  1  0.50000000  0.56126776  0.48752310  1
  H  H144  1  0.50000000  0.50134809  0.01129686  1
  H  H145  1  0.50000000  0.50107869  0.48820822  1
  H  H146  1  0.50000000  0.46141687  0.11960083  1
  H  H147  1  0.50000000  0.46129920  0.28742840  1
  H  H148  1  0.50000000  0.46048109  0.45300699  1
  H  H149  1  0.50000000  0.46075307  0.04644802  1
  H  H150  1  0.50000000  0.46140210  0.21292751  1
  H  H151  1  0.50000000  0.46118463  0.38059234  1
