# generated using pymatgen
data_H17C60
_symmetry_space_group_name_H-M   'P 1'
_cell_length_a   20.00000000
_cell_length_b   40.19450000
_cell_length_c   26.34912291
_cell_angle_alpha   90.00000000
_cell_angle_beta   90.00000000
_cell_angle_gamma   90.00000000
_symmetry_Int_Tables_number   1
_chemical_formula_structural   H17C60
_chemical_formula_sum   'H34 C120'
_cell_volume   21181.79641995
_cell_formula_units_Z   2
loop_
 _symmetry_equiv_pos_site_id
 _symmetry_equiv_pos_as_xyz
  1  'x, y, z'
loop_
 _atom_site_type_symbol
 _atom_site_label
 _atom_site_symmetry_multiplicity
 _atom_site_fract_x
 _atom_site_fract_y
 _atom_site_fract_z
 _atom_site_occupancy
  C  C0  1  0.50000000  0.28499031  0.61374282  1
  C  C1  1  0.50000000  0.28533380  0.77609854  1
  C  C2  1  0.50000000  0.28504672  0.93939293  1
  C  C3  1  0.50000000  0.31468250  0.64193954  1
  C  C4  1  0.50000000  0.31525098  0.80336573  1
  C  C5  1  0.50000000  0.31509108  0.96501298  1
  C  C6  1  0.50000000  0.28500642  0.56058492  1
  C  C7  1  0.50000000  0.28531381  0.72392372  1
  C  C8  1  0.50000000  0.28504266  0.88622930  1
  C  C9  1  0.50000000  0.34567800  0.61613508  1
  C  C10  1  0.50000000  0.34633663  0.77712352  1
  C  C11  1  0.50000000  0.34532573  0.93738979  1
  C  C12  1  0.50000000  0.37722351  0.64128379  1
  C  C13  1  0.50000000  0.37740427  0.80417733  1
  C  C14  1  0.50000000  0.37560498  0.96328397  1
  C  C15  1  0.50000000  0.31503415  0.53491660  1
  C  C16  1  0.50000000  0.31522302  0.69663142  1
  C  C17  1  0.50000000  0.31473940  0.85805267  1
  C  C18  1  0.50000000  0.34526670  0.56257432  1
  C  C19  1  0.50000000  0.34632770  0.72285747  1
  C  C20  1  0.50000000  0.34573392  0.88384305  1
  C  C21  1  0.50000000  0.40966716  0.11259598  1
  C  C22  1  0.50000000  0.40775828  0.61307517  1
  C  C23  1  0.50000000  0.40881392  0.27598516  1
  C  C24  1  0.50000000  0.40809672  0.77744037  1
  C  C25  1  0.50000000  0.40962630  0.43910924  1
  C  C26  1  0.50000000  0.40719170  0.94199038  1
  C  C27  1  0.50000000  0.43926861  0.14064729  1
  C  C28  1  0.50000000  0.43881193  0.63957372  1
  C  C29  1  0.50000000  0.43885004  0.30461816  1
  C  C30  1  0.50000000  0.43877953  0.80523577  1
  C  C31  1  0.50000000  0.43828621  0.47166609  1
  C  C32  1  0.50000000  0.43804590  0.97256568  1
  C  C33  1  0.50000000  0.37554970  0.53668567  1
  C  C34  1  0.50000000  0.37738248  0.69578920  1
  C  C35  1  0.50000000  0.37726143  0.85866899  1
  C  C36  1  0.50000000  0.40965986  0.06073747  1
  C  C37  1  0.50000000  0.40714843  0.55791688  1
  C  C38  1  0.50000000  0.40882981  0.22372002  1
  C  C39  1  0.50000000  0.40808455  0.72249810  1
  C  C40  1  0.50000000  0.40963140  0.38722977  1
  C  C41  1  0.50000000  0.40779633  0.88685419  1
  C  C42  1  0.50000000  0.46933110  0.11170377  1
  C  C43  1  0.50000000  0.46921688  0.61110336  1
  C  C44  1  0.50000000  0.46934283  0.27715266  1
  C  C45  1  0.50000000  0.46927738  0.77752220  1
  C  C46  1  0.50000000  0.46927370  0.44400791  1
  C  C47  1  0.50000000  0.46924123  0.94511632  1
  C  C48  1  0.50000000  0.49941922  0.14057369  1
  C  C49  1  0.50000000  0.49971989  0.63961128  1
  C  C50  1  0.50000000  0.49981451  0.30466140  1
  C  C51  1  0.50000000  0.49981326  0.80513436  1
  C  C52  1  0.50000000  0.50023103  0.47173519  1
  C  C53  1  0.50000000  0.50044831  0.97248537  1
  C  C54  1  0.50000000  0.43831779  0.02816351  1
  C  C55  1  0.50000000  0.43800217  0.52729501  1
  C  C56  1  0.50000000  0.43888227  0.19515705  1
  C  C57  1  0.50000000  0.43877140  0.69468379  1
  C  C58  1  0.50000000  0.43922335  0.35915093  1
  C  C59  1  0.50000000  0.43883504  0.86033154  1
  C  C60  1  0.50000000  0.46930719  0.05581533  1
  C  C61  1  0.50000000  0.46920297  0.55473172  1
  C  C62  1  0.50000000  0.46935216  0.22263017  1
  C  C63  1  0.50000000  0.46927029  0.72238079  1
  C  C64  1  0.50000000  0.46929030  0.38808750  1
  C  C65  1  0.50000000  0.46924721  0.88876297  1
  C  C66  1  0.50000000  0.52899072  0.11242517  1
  C  C67  1  0.50000000  0.53063307  0.61321563  1
  C  C68  1  0.50000000  0.52985059  0.27600531  1
  C  C69  1  0.50000000  0.53045838  0.77729389  1
  C  C70  1  0.50000000  0.52894072  0.43924648  1
  C  C71  1  0.50000000  0.53126993  0.94180321  1
  C  C72  1  0.50000000  0.56129012  0.64149592  1
  C  C73  1  0.50000000  0.56129027  0.80396496  1
  C  C74  1  0.50000000  0.56281983  0.96293213  1
  C  C75  1  0.50000000  0.50026818  0.02808485  1
  C  C76  1  0.50000000  0.50040568  0.52734843  1
  C  C77  1  0.50000000  0.49981563  0.19511296  1
  C  C78  1  0.50000000  0.49978891  0.69473632  1
  C  C79  1  0.50000000  0.49938122  0.35921061  1
  C  C80  1  0.50000000  0.49975175  0.86025786  1
  C  C81  1  0.50000000  0.52898516  0.06055661  1
  C  C82  1  0.50000000  0.53121580  0.55803202  1
  C  C83  1  0.50000000  0.52985365  0.22372278  1
  C  C84  1  0.50000000  0.53045087  0.72254656  1
  C  C85  1  0.50000000  0.52894692  0.38735742  1
  C  C86  1  0.50000000  0.53068133  0.88661758  1
  C  C87  1  0.50000000  0.59276717  0.61655637  1
  C  C88  1  0.50000000  0.59236055  0.77708674  1
  C  C89  1  0.50000000  0.59313124  0.93697991  1
  C  C90  1  0.50000000  0.62356056  0.64249398  1
  C  C91  1  0.50000000  0.62339297  0.80329066  1
  C  C92  1  0.50000000  0.62291292  0.96451689  1
  C  C93  1  0.50000000  0.56276685  0.53689963  1
  C  C94  1  0.50000000  0.56127334  0.69585324  1
  C  C95  1  0.50000000  0.56132568  0.85831842  1
  C  C96  1  0.50000000  0.59310397  0.56279939  1
  C  C97  1  0.50000000  0.59235015  0.72273674  1
  C  C98  1  0.50000000  0.59279520  0.88323905  1
  C  C99  1  0.50000000  0.65412507  0.61466913  1
  C  C100  1  0.50000000  0.65450293  0.77698630  1
  C  C101  1  0.50000000  0.65377875  0.93974623  1
  C  C102  1  0.50000000  0.68533600  0.64045737  1
  C  C103  1  0.50000000  0.68526404  0.80418245  1
  C  C104  1  0.50000000  0.68416669  0.96718331  1
  C  C105  1  0.50000000  0.62288168  0.53520721  1
  C  C106  1  0.50000000  0.62337604  0.69652650  1
  C  C107  1  0.50000000  0.62359746  0.85731887  1
  C  C108  1  0.50000000  0.65373412  0.56006158  1
  C  C109  1  0.50000000  0.65448909  0.72284867  1
  C  C110  1  0.50000000  0.65417199  0.88513632  1
  C  C111  1  0.50000000  0.71480307  0.61175427  1
  C  C112  1  0.50000000  0.71500458  0.77618253  1
  C  C113  1  0.50000000  0.71421793  0.94149386  1
  C  C114  1  0.50000000  0.68416042  0.53275551  1
  C  C115  1  0.50000000  0.68524776  0.69566740  1
  C  C116  1  0.50000000  0.68538860  0.85939751  1
  C  C117  1  0.50000000  0.71421287  0.55844980  1
  C  C118  1  0.50000000  0.71500006  0.72365489  1
  C  C119  1  0.50000000  0.71482685  0.88820527  1
  H  H120  1  0.50000000  0.26098713  0.63314747  1
  H  H121  1  0.50000000  0.26154028  0.79607317  1
  H  H122  1  0.50000000  0.26142948  0.96018856  1
  H  H123  1  0.50000000  0.26137261  0.53983912  1
  H  H124  1  0.50000000  0.26151197  0.70397666  1
  H  H125  1  0.50000000  0.26108283  0.86667230  1
  H  H126  1  0.50000000  0.73896692  0.63081878  1
  H  H127  1  0.50000000  0.73890772  0.79592520  1
  H  H128  1  0.50000000  0.73774647  0.96255291  1
  H  H129  1  0.50000000  0.73773648  0.53736196  1
  H  H130  1  0.50000000  0.73890860  0.70390881  1
  H  H131  1  0.50000000  0.73907090  0.86941368  1
  H  H132  1  0.50000000  0.68326634  0.49119256  1
  H  H133  1  0.50000000  0.31589868  0.49331604  1
  H  H134  1  0.50000000  0.68324687  0.00876611  1
  H  H135  1  0.50000000  0.31600431  0.00658328  1
  H  H136  1  0.50000000  0.62199610  0.00611351  1
  H  H137  1  0.50000000  0.62195734  0.49357545  1
  H  H138  1  0.50000000  0.37154537  0.00314357  1
  H  H139  1  0.50000000  0.38543640  0.13140522  1
  H  H140  1  0.50000000  0.38479884  0.29541186  1
  H  H141  1  0.50000000  0.38453462  0.45249072  1
  H  H142  1  0.50000000  0.37144530  0.49683649  1
  H  H143  1  0.50000000  0.38451576  0.04756058  1
  H  H144  1  0.50000000  0.38486327  0.20416157  1
  H  H145  1  0.50000000  0.38543240  0.36832153  1
  H  H146  1  0.50000000  0.55321339  0.13123378  1
  H  H147  1  0.50000000  0.55387642  0.29540480  1
  H  H148  1  0.50000000  0.55404902  0.45262919  1
  H  H149  1  0.50000000  0.56706898  0.00273413  1
  H  H150  1  0.50000000  0.55412148  0.04725334  1
  H  H151  1  0.50000000  0.55384294  0.20421968  1
  H  H152  1  0.50000000  0.55312549  0.36840730  1
  H  H153  1  0.50000000  0.56699870  0.49708440  1
