# generated using pymatgen
data_H4C15
_symmetry_space_group_name_H-M   'P 1'
_cell_length_a   20.00000000
_cell_length_b   37.22700000
_cell_length_c   26.02963445
_cell_angle_alpha   90.00000000
_cell_angle_beta   90.00000000
_cell_angle_gamma   90.00000000
_symmetry_Int_Tables_number   1
_chemical_formula_structural   H4C15
_chemical_formula_sum   'H32 C120'
_cell_volume   19380.10403088
_cell_formula_units_Z   8
loop_
 _symmetry_equiv_pos_site_id
 _symmetry_equiv_pos_as_xyz
  1  'x, y, z'
loop_
 _atom_site_type_symbol
 _atom_site_label
 _atom_site_symmetry_multiplicity
 _atom_site_fract_x
 _atom_site_fract_y
 _atom_site_fract_z
 _atom_site_occupancy
  C  C0  1  0.50000000  0.31762982  0.55578918  1
  C  C1  1  0.50000000  0.31753114  0.88770619  1
  C  C2  1  0.50000000  0.38420059  0.55820755  1
  C  C3  1  0.50000000  0.38426357  0.88654326  1
  C  C4  1  0.50000000  0.45028533  0.55736320  1
  C  C5  1  0.50000000  0.45070250  0.88740513  1
  C  C6  1  0.50000000  0.51325103  0.22170769  1
  C  C7  1  0.50000000  0.51742841  0.55649100  1
  C  C8  1  0.50000000  0.51724970  0.88813514  1
  C  C9  1  0.50000000  0.57937812  0.22251393  1
  C  C10  1  0.50000000  0.58451477  0.55517442  1
  C  C11  1  0.50000000  0.58385322  0.88901263  1
  C  C12  1  0.50000000  0.64493638  0.22362056  1
  C  C13  1  0.50000000  0.65154157  0.55646685  1
  C  C14  1  0.50000000  0.65027862  0.88814217  1
  C  C15  1  0.50000000  0.71819011  0.56359318  1
  C  C16  1  0.50000000  0.71663321  0.88364650  1
  C  C17  1  0.50000000  0.31752404  0.61230941  1
  C  C18  1  0.50000000  0.31762875  0.94422297  1
  C  C19  1  0.50000000  0.38426351  0.61346327  1
  C  C20  1  0.50000000  0.38420164  0.94179387  1
  C  C21  1  0.50000000  0.45070611  0.61258919  1
  C  C22  1  0.50000000  0.45028574  0.94263496  1
  C  C23  1  0.50000000  0.51324858  0.27829091  1
  C  C24  1  0.50000000  0.51726309  0.61185707  1
  C  C25  1  0.50000000  0.51742530  0.94349922  1
  C  C26  1  0.50000000  0.57937609  0.27749000  1
  C  C27  1  0.50000000  0.58384662  0.61099048  1
  C  C28  1  0.50000000  0.58451843  0.94482782  1
  C  C29  1  0.50000000  0.64493567  0.27639410  1
  C  C30  1  0.50000000  0.65027101  0.61186083  1
  C  C31  1  0.50000000  0.65154571  0.94353857  1
  C  C32  1  0.50000000  0.71662331  0.61634742  1
  C  C33  1  0.50000000  0.71819273  0.93639492  1
  C  C34  1  0.50000000  0.28533344  0.64035033  1
  C  C35  1  0.50000000  0.28678239  0.97380646  1
  C  C36  1  0.50000000  0.35061964  0.64006498  1
  C  C37  1  0.50000000  0.35172614  0.96880688  1
  C  C38  1  0.50000000  0.41735249  0.64020546  1
  C  C39  1  0.50000000  0.41738875  0.96802319  1
  C  C40  1  0.50000000  0.48140370  0.30796845  1
  C  C41  1  0.50000000  0.48405988  0.63960157  1
  C  C42  1  0.50000000  0.48417450  0.97082116  1
  C  C43  1  0.50000000  0.54634291  0.30593353  1
  C  C44  1  0.50000000  0.55054272  0.63899747  1
  C  C45  1  0.50000000  0.55045244  0.97183654  1
  C  C46  1  0.50000000  0.61243658  0.30422612  1
  C  C47  1  0.50000000  0.61664847  0.63904963  1
  C  C48  1  0.50000000  0.61766468  0.97275645  1
  C  C49  1  0.50000000  0.68307348  0.64062914  1
  C  C50  1  0.50000000  0.68671580  0.96469814  1
  C  C51  1  0.50000000  0.28519792  0.69357381  1
  C  C52  1  0.50000000  0.35061770  0.69505625  1
  C  C53  1  0.50000000  0.41738629  0.69541638  1
  C  C54  1  0.50000000  0.48439905  0.02470765  1
  C  C55  1  0.50000000  0.48203733  0.36136828  1
  C  C56  1  0.50000000  0.48405862  0.69487154  1
  C  C57  1  0.50000000  0.54938656  0.02696773  1
  C  C58  1  0.50000000  0.54694670  0.36148252  1
  C  C59  1  0.50000000  0.55030945  0.69436840  1
  C  C60  1  0.50000000  0.61585868  0.02897593  1
  C  C61  1  0.50000000  0.61263111  0.35953476  1
  C  C62  1  0.50000000  0.61616904  0.69436929  1
  C  C63  1  0.50000000  0.68220842  0.69587257  1
  C  C64  1  0.50000000  0.31735562  0.72213427  1
  C  C65  1  0.50000000  0.38415969  0.72250777  1
  C  C66  1  0.50000000  0.45075279  0.72255103  1
  C  C67  1  0.50000000  0.51574628  0.05390461  1
  C  C68  1  0.50000000  0.51441996  0.38980149  1
  C  C69  1  0.50000000  0.51711960  0.72226330  1
  C  C70  1  0.50000000  0.58210150  0.05563477  1
  C  C71  1  0.50000000  0.58063845  0.38873858  1
  C  C72  1  0.50000000  0.58328362  0.72214449  1
  C  C73  1  0.50000000  0.64638671  0.06141470  1
  C  C74  1  0.50000000  0.64522165  0.38614168  1
  C  C75  1  0.50000000  0.64914680  0.72253422  1
  C  C76  1  0.50000000  0.71451420  0.72373163  1
  C  C77  1  0.50000000  0.31735754  0.77788109  1
  C  C78  1  0.50000000  0.38416279  0.77748930  1
  C  C79  1  0.50000000  0.45074976  0.77747261  1
  C  C80  1  0.50000000  0.51442593  0.11020399  1
  C  C81  1  0.50000000  0.51574693  0.44610483  1
  C  C82  1  0.50000000  0.51713002  0.77773764  1
  C  C83  1  0.50000000  0.58063658  0.11126273  1
  C  C84  1  0.50000000  0.58210479  0.44436218  1
  C  C85  1  0.50000000  0.58328472  0.77786453  1
  C  C86  1  0.50000000  0.64521889  0.11385228  1
  C  C87  1  0.50000000  0.64638723  0.43856871  1
  C  C88  1  0.50000000  0.64914985  0.77747048  1
  C  C89  1  0.50000000  0.71451717  0.77624829  1
  C  C90  1  0.50000000  0.28519998  0.80644758  1
  C  C91  1  0.50000000  0.35062421  0.80494419  1
  C  C92  1  0.50000000  0.41738461  0.80458798  1
  C  C93  1  0.50000000  0.48204603  0.13863292  1
  C  C94  1  0.50000000  0.48440100  0.47530456  1
  C  C95  1  0.50000000  0.48406755  0.80512048  1
  C  C96  1  0.50000000  0.54694911  0.13852464  1
  C  C97  1  0.50000000  0.54938903  0.47303380  1
  C  C98  1  0.50000000  0.55031407  0.80564232  1
  C  C99  1  0.50000000  0.61262916  0.14046412  1
  C  C100  1  0.50000000  0.61586389  0.47101946  1
  C  C101  1  0.50000000  0.61617070  0.80563239  1
  C  C102  1  0.50000000  0.68221693  0.80412530  1
  C  C103  1  0.50000000  0.28679643  0.52616811  1
  C  C104  1  0.50000000  0.28534113  0.85966698  1
  C  C105  1  0.50000000  0.35172585  0.53119093  1
  C  C106  1  0.50000000  0.35062305  0.85994097  1
  C  C107  1  0.50000000  0.41738829  0.53198930  1
  C  C108  1  0.50000000  0.41734726  0.85979877  1
  C  C109  1  0.50000000  0.48140717  0.19202475  1
  C  C110  1  0.50000000  0.48417215  0.52918178  1
  C  C111  1  0.50000000  0.48405996  0.86039839  1
  C  C112  1  0.50000000  0.54634608  0.19406976  1
  C  C113  1  0.50000000  0.55045320  0.52816342  1
  C  C114  1  0.50000000  0.55054000  0.86100641  1
  C  C115  1  0.50000000  0.61244043  0.19578026  1
  C  C116  1  0.50000000  0.61766380  0.52724439  1
  C  C117  1  0.50000000  0.61665559  0.86095041  1
  C  C118  1  0.50000000  0.68670920  0.53530131  1
  C  C119  1  0.50000000  0.68308144  0.85937253  1
  H  H120  1  0.50000000  0.74398355  0.54339753  1
  H  H121  1  0.50000000  0.74160025  0.86184260  1
  H  H122  1  0.50000000  0.74159352  0.63814941  1
  H  H123  1  0.50000000  0.74398468  0.95658410  1
  H  H124  1  0.50000000  0.25956149  0.62015345  1
  H  H125  1  0.50000000  0.25970507  0.95762283  1
  H  H126  1  0.50000000  0.25922502  0.71317126  1
  H  H127  1  0.50000000  0.74044349  0.70444538  1
  H  H128  1  0.50000000  0.74046054  0.79547420  1
  H  H129  1  0.50000000  0.25921931  0.78687626  1
  H  H130  1  0.50000000  0.25972079  0.54236343  1
  H  H131  1  0.50000000  0.25956971  0.87984490  1
  H  H132  1  0.50000000  0.67073906  0.20375795  1
  H  H133  1  0.50000000  0.67073279  0.29627534  1
  H  H134  1  0.50000000  0.28899687  0.01576157  1
  H  H135  1  0.50000000  0.35243015  0.01090680  1
  H  H136  1  0.50000000  0.41594304  0.00998509  1
  H  H137  1  0.50000000  0.45517612  0.28896003  1
  H  H138  1  0.50000000  0.69255791  0.00495482  1
  H  H139  1  0.50000000  0.45875827  0.04488596  1
  H  H140  1  0.50000000  0.45622396  0.38147663  1
  H  H141  1  0.50000000  0.67322003  0.04705776  1
  H  H142  1  0.50000000  0.67088592  0.36593672  1
  H  H143  1  0.50000000  0.67088060  0.13408502  1
  H  H144  1  0.50000000  0.67322264  0.45289486  1
  H  H145  1  0.50000000  0.45623455  0.11853599  1
  H  H146  1  0.50000000  0.45876792  0.45511486  1
  H  H147  1  0.50000000  0.28901951  0.48418203  1
  H  H148  1  0.50000000  0.35241988  0.48905961  1
  H  H149  1  0.50000000  0.41594975  0.49003723  1
  H  H150  1  0.50000000  0.45517398  0.21102249  1
  H  H151  1  0.50000000  0.69254104  0.49505935  1
