# generated using pymatgen
data_H17C69
_symmetry_space_group_name_H-M   'P 1'
_cell_length_a   10.00000000
_cell_length_b   41.10890000
_cell_length_c   26.05579768
_cell_angle_alpha   90.00000000
_cell_angle_beta   90.00000000
_cell_angle_gamma   90.00000000
_symmetry_Int_Tables_number   1
_chemical_formula_structural   H17C69
_chemical_formula_sum   'H34 C138'
_cell_volume   10711.25181315
_cell_formula_units_Z   2
loop_
 _symmetry_equiv_pos_site_id
 _symmetry_equiv_pos_as_xyz
  1  'x, y, z'
loop_
 _atom_site_type_symbol
 _atom_site_label
 _atom_site_symmetry_multiplicity
 _atom_site_fract_x
 _atom_site_fract_y
 _atom_site_fract_z
 _atom_site_occupancy
  C  C0  1  0.50000000  0.28980146  0.63904006  1
  C  C1  1  0.50000000  0.29073288  0.96969213  1
  C  C2  1  0.50000000  0.35021396  0.64048645  1
  C  C3  1  0.50000000  0.35071339  0.96819530  1
  C  C4  1  0.50000000  0.41050510  0.64052116  1
  C  C5  1  0.50000000  0.41026108  0.96758328  1
  C  C6  1  0.50000000  0.46739360  0.30824668  1
  C  C7  1  0.50000000  0.47079835  0.63975273  1
  C  C8  1  0.50000000  0.47063880  0.97045428  1
  C  C9  1  0.50000000  0.52610044  0.30594028  1
  C  C10  1  0.50000000  0.53110157  0.63911448  1
  C  C11  1  0.50000000  0.53051968  0.97178263  1
  C  C12  1  0.50000000  0.58590412  0.30409756  1
  C  C13  1  0.50000000  0.59102651  0.63940141  1
  C  C14  1  0.50000000  0.59107407  0.97293874  1
  C  C15  1  0.50000000  0.65112979  0.64046683  1
  C  C16  1  0.50000000  0.65239851  0.96543630  1
  C  C17  1  0.50000000  0.71215061  0.64084581  1
  C  C18  1  0.50000000  0.71156453  0.96756456  1
  C  C19  1  0.50000000  0.28982744  0.69493670  1
  C  C20  1  0.50000000  0.35024554  0.69537524  1
  C  C21  1  0.50000000  0.41055592  0.69536398  1
  C  C22  1  0.50000000  0.47065367  0.02419925  1
  C  C23  1  0.50000000  0.46803789  0.36164184  1
  C  C24  1  0.50000000  0.47083821  0.69492402  1
  C  C25  1  0.50000000  0.52945328  0.02693109  1
  C  C26  1  0.50000000  0.52678040  0.36148255  1
  C  C27  1  0.50000000  0.53102916  0.69462643  1
  C  C28  1  0.50000000  0.58962131  0.02917236  1
  C  C29  1  0.50000000  0.58617493  0.35922440  1
  C  C30  1  0.50000000  0.59096392  0.69466553  1
  C  C31  1  0.50000000  0.65098412  0.69534551  1
  C  C32  1  0.50000000  0.71170373  0.69608054  1
  C  C33  1  0.50000000  0.26069059  0.72331578  1
  C  C34  1  0.50000000  0.31987993  0.72241442  1
  C  C35  1  0.50000000  0.38031238  0.72244089  1
  C  C36  1  0.50000000  0.44077187  0.72246188  1
  C  C37  1  0.50000000  0.49892663  0.05368456  1
  C  C38  1  0.50000000  0.49742452  0.39000030  1
  C  C39  1  0.50000000  0.50098503  0.72237944  1
  C  C40  1  0.50000000  0.55897015  0.05577049  1
  C  C41  1  0.50000000  0.55733355  0.38865428  1
  C  C42  1  0.50000000  0.56093935  0.72230466  1
  C  C43  1  0.50000000  0.61708279  0.06224815  1
  C  C44  1  0.50000000  0.61572301  0.38556671  1
  C  C45  1  0.50000000  0.62097424  0.72237859  1
  C  C46  1  0.50000000  0.68138446  0.72264192  1
  C  C47  1  0.50000000  0.74099730  0.72370570  1
  C  C48  1  0.50000000  0.26069947  0.77641446  1
  C  C49  1  0.50000000  0.31988964  0.77738784  1
  C  C50  1  0.50000000  0.38031911  0.77746616  1
  C  C51  1  0.50000000  0.44077842  0.77750523  1
  C  C52  1  0.50000000  0.49742666  0.11002622  1
  C  C53  1  0.50000000  0.49887861  0.44635184  1
  C  C54  1  0.50000000  0.50098606  0.77759301  1
  C  C55  1  0.50000000  0.55734620  0.11135482  1
  C  C56  1  0.50000000  0.55891287  0.44424364  1
  C  C57  1  0.50000000  0.56093944  0.77766249  1
  C  C58  1  0.50000000  0.61572554  0.11457285  1
  C  C59  1  0.50000000  0.61701719  0.43788256  1
  C  C60  1  0.50000000  0.62097574  0.77761485  1
  C  C61  1  0.50000000  0.68139568  0.77744416  1
  C  C62  1  0.50000000  0.74101720  0.77639941  1
  C  C63  1  0.50000000  0.28983253  0.80481476  1
  C  C64  1  0.50000000  0.35025254  0.80448297  1
  C  C65  1  0.50000000  0.41055929  0.80457990  1
  C  C66  1  0.50000000  0.46803061  0.13839190  1
  C  C67  1  0.50000000  0.47061325  0.47588317  1
  C  C68  1  0.50000000  0.47084227  0.80505819  1
  C  C69  1  0.50000000  0.52678731  0.13851891  1
  C  C70  1  0.50000000  0.52940720  0.47309868  1
  C  C71  1  0.50000000  0.53102836  0.80534246  1
  C  C72  1  0.50000000  0.58616705  0.14084121  1
  C  C73  1  0.50000000  0.58955310  0.47085981  1
  C  C74  1  0.50000000  0.59095940  0.80530704  1
  C  C75  1  0.50000000  0.65098602  0.80467626  1
  C  C76  1  0.50000000  0.71172498  0.80404033  1
  C  C77  1  0.50000000  0.29078142  0.52995770  1
  C  C78  1  0.50000000  0.28983221  0.86070472  1
  C  C79  1  0.50000000  0.35074815  0.53166388  1
  C  C80  1  0.50000000  0.35023489  0.85937634  1
  C  C81  1  0.50000000  0.41026910  0.53243780  1
  C  C82  1  0.50000000  0.41051067  0.85943606  1
  C  C83  1  0.50000000  0.46739500  0.19177980  1
  C  C84  1  0.50000000  0.47064753  0.52960308  1
  C  C85  1  0.50000000  0.47080136  0.86023681  1
  C  C86  1  0.50000000  0.52611425  0.19404172  1
  C  C87  1  0.50000000  0.53052189  0.52823696  1
  C  C88  1  0.50000000  0.53109592  0.86087154  1
  C  C89  1  0.50000000  0.58592786  0.19596967  1
  C  C90  1  0.50000000  0.59107060  0.52706949  1
  C  C91  1  0.50000000  0.59101214  0.86057659  1
  C  C92  1  0.50000000  0.65247863  0.53453072  1
  C  C93  1  0.50000000  0.65112312  0.85955109  1
  C  C94  1  0.50000000  0.71168587  0.53268602  1
  C  C95  1  0.50000000  0.71217114  0.85929737  1
  C  C96  1  0.50000000  0.26147223  0.55623283  1
  C  C97  1  0.50000000  0.26092880  0.88955166  1
  C  C98  1  0.50000000  0.32062852  0.55731765  1
  C  C99  1  0.50000000  0.32023984  0.88718944  1
  C  C100  1  0.50000000  0.38022947  0.55859971  1
  C  C101  1  0.50000000  0.38029736  0.88620673  1
  C  C102  1  0.50000000  0.44001640  0.55771048  1
  C  C103  1  0.50000000  0.44056358  0.88709031  1
  C  C104  1  0.50000000  0.49613581  0.22167478  1
  C  C105  1  0.50000000  0.50078920  0.55680118  1
  C  C106  1  0.50000000  0.50090145  0.88796638  1
  C  C107  1  0.50000000  0.55597178  0.22256246  1
  C  C108  1  0.50000000  0.56130631  0.55526860  1
  C  C109  1  0.50000000  0.56110682  0.88884029  1
  C  C110  1  0.50000000  0.61536347  0.22375667  1
  C  C111  1  0.50000000  0.62159278  0.55650579  1
  C  C112  1  0.50000000  0.62113842  0.88772449  1
  C  C113  1  0.50000000  0.68211365  0.56064826  1
  C  C114  1  0.50000000  0.68183617  0.88524325  1
  C  C115  1  0.50000000  0.74107966  0.55856823  1
  C  C116  1  0.50000000  0.74115717  0.88800902  1
  C  C117  1  0.50000000  0.26092929  0.61007422  1
  C  C118  1  0.50000000  0.26142785  0.94339763  1
  C  C119  1  0.50000000  0.32022632  0.61260973  1
  C  C120  1  0.50000000  0.32061406  0.94245965  1
  C  C121  1  0.50000000  0.38029046  0.61372310  1
  C  C122  1  0.50000000  0.38022509  0.94134739  1
  C  C123  1  0.50000000  0.44056347  0.61290399  1
  C  C124  1  0.50000000  0.44001170  0.94230885  1
  C  C125  1  0.50000000  0.49612288  0.27829870  1
  C  C126  1  0.50000000  0.50090319  0.61203386  1
  C  C127  1  0.50000000  0.50078544  0.94322535  1
  C  C128  1  0.50000000  0.55596366  0.27744928  1
  C  C129  1  0.50000000  0.56111436  0.61114889  1
  C  C130  1  0.50000000  0.56129856  0.94475772  1
  C  C131  1  0.50000000  0.61534532  0.27638071  1
  C  C132  1  0.50000000  0.62116555  0.61224327  1
  C  C133  1  0.50000000  0.62153850  0.94342509  1
  C  C134  1  0.50000000  0.68184767  0.61482718  1
  C  C135  1  0.50000000  0.68205828  0.93943271  1
  C  C136  1  0.50000000  0.74118572  0.61230446  1
  C  C137  1  0.50000000  0.74098838  0.94175769  1
  H  H138  1  0.50000000  0.23721831  0.70356349  1
  H  H139  1  0.50000000  0.76421814  0.70344976  1
  H  H140  1  0.50000000  0.23721166  0.79610939  1
  H  H141  1  0.50000000  0.76425608  0.79663007  1
  H  H142  1  0.50000000  0.23847686  0.53497091  1
  H  H143  1  0.50000000  0.23736283  0.87007091  1
  H  H144  1  0.50000000  0.76412241  0.53743612  1
  H  H145  1  0.50000000  0.76467129  0.86853093  1
  H  H146  1  0.50000000  0.23726975  0.62925332  1
  H  H147  1  0.50000000  0.23844359  0.96469064  1
  H  H148  1  0.50000000  0.76460875  0.63206007  1
  H  H149  1  0.50000000  0.76401909  0.96294864  1
  H  H150  1  0.50000000  0.29125407  0.01173671  1
  H  H151  1  0.50000000  0.35112644  0.01027873  1
  H  H152  1  0.50000000  0.40901024  0.00949293  1
  H  H153  1  0.50000000  0.44359471  0.28945987  1
  H  H154  1  0.50000000  0.65651326  0.00576625  1
  H  H155  1  0.50000000  0.71061441  0.00963362  1
  H  H156  1  0.50000000  0.44738953  0.04419529  1
  H  H157  1  0.50000000  0.44462436  0.38166031  1
  H  H158  1  0.50000000  0.64177502  0.04952507  1
  H  H159  1  0.50000000  0.63892088  0.36526039  1
  H  H160  1  0.50000000  0.63884262  0.13513968  1
  H  H161  1  0.50000000  0.64165288  0.45081834  1
  H  H162  1  0.50000000  0.44461990  0.11838019  1
  H  H163  1  0.50000000  0.44727857  0.45613030  1
  H  H164  1  0.50000000  0.29130760  0.48787998  1
  H  H165  1  0.50000000  0.35117958  0.48956807  1
  H  H166  1  0.50000000  0.40900341  0.49056832  1
  H  H167  1  0.50000000  0.44364583  0.21073219  1
  H  H168  1  0.50000000  0.65673012  0.49419121  1
  H  H169  1  0.50000000  0.71084399  0.49063745  1
  H  H170  1  0.50000000  0.63879138  0.20409399  1
  H  H171  1  0.50000000  0.63871994  0.29620401  1
