# generated using pymatgen
data_HC3
_symmetry_space_group_name_H-M   'P 1'
_cell_length_a   10.00000000
_cell_length_b   41.10890000
_cell_length_c   26.04040939
_cell_angle_alpha   90.00000000
_cell_angle_beta   90.00000000
_cell_angle_gamma   90.00000000
_symmetry_Int_Tables_number   1
_chemical_formula_structural   HC3
_chemical_formula_sum   'H46 C138'
_cell_volume   10704.92585388
_cell_formula_units_Z   46
loop_
 _symmetry_equiv_pos_site_id
 _symmetry_equiv_pos_as_xyz
  1  'x, y, z'
loop_
 _atom_site_type_symbol
 _atom_site_label
 _atom_site_symmetry_multiplicity
 _atom_site_fract_x
 _atom_site_fract_y
 _atom_site_fract_z
 _atom_site_occupancy
  C  C0  1  0.50000000  0.29003387  0.30560483  1
  C  C1  1  0.50000000  0.28971329  0.63896242  1
  C  C2  1  0.50000000  0.28946760  0.97167871  1
  C  C3  1  0.50000000  0.34931566  0.30733623  1
  C  C4  1  0.50000000  0.34983690  0.63954459  1
  C  C5  1  0.50000000  0.34949938  0.97180140  1
  C  C6  1  0.50000000  0.40978559  0.64011006  1
  C  C7  1  0.50000000  0.41006564  0.96825772  1
  C  C8  1  0.50000000  0.46996386  0.64055592  1
  C  C9  1  0.50000000  0.46993922  0.96816612  1
  C  C10  1  0.50000000  0.52995908  0.64044501  1
  C  C11  1  0.50000000  0.53006882  0.96831965  1
  C  C12  1  0.50000000  0.58992859  0.64057489  1
  C  C13  1  0.50000000  0.59022646  0.96819648  1
  C  C14  1  0.50000000  0.65001364  0.64023499  1
  C  C15  1  0.50000000  0.65014277  0.96808731  1
  C  C16  1  0.50000000  0.71104948  0.30795813  1
  C  C17  1  0.50000000  0.70992959  0.63984891  1
  C  C18  1  0.50000000  0.71108321  0.97081489  1
  C  C19  1  0.50000000  0.28936622  0.02734674  1
  C  C20  1  0.50000000  0.28990152  0.36147481  1
  C  C21  1  0.50000000  0.28970484  0.69476045  1
  C  C22  1  0.50000000  0.34859873  0.02530555  1
  C  C23  1  0.50000000  0.34915309  0.36028841  1
  C  C24  1  0.50000000  0.34978388  0.69457147  1
  C  C25  1  0.50000000  0.40972229  0.69515263  1
  C  C26  1  0.50000000  0.46985935  0.69546856  1
  C  C27  1  0.50000000  0.52991318  0.69536794  1
  C  C28  1  0.50000000  0.58992535  0.69541205  1
  C  C29  1  0.50000000  0.64996490  0.69518233  1
  C  C30  1  0.50000000  0.71238066  0.02421661  1
  C  C31  1  0.50000000  0.71140782  0.36093078  1
  C  C32  1  0.50000000  0.71002779  0.69498150  1
  C  C33  1  0.50000000  0.26014705  0.05680695  1
  C  C34  1  0.50000000  0.26036067  0.39033538  1
  C  C35  1  0.50000000  0.26049061  0.72344692  1
  C  C36  1  0.50000000  0.31955137  0.05447804  1
  C  C37  1  0.50000000  0.31977062  0.38936551  1
  C  C38  1  0.50000000  0.31967678  0.72236486  1
  C  C39  1  0.50000000  0.37972632  0.72242122  1
  C  C40  1  0.50000000  0.43980359  0.72255276  1
  C  C41  1  0.50000000  0.49989739  0.72262288  1
  C  C42  1  0.50000000  0.55986286  0.72260703  1
  C  C43  1  0.50000000  0.61996005  0.72252625  1
  C  C44  1  0.50000000  0.68001026  0.72252138  1
  C  C45  1  0.50000000  0.74041303  0.05524074  1
  C  C46  1  0.50000000  0.73984216  0.39161937  1
  C  C47  1  0.50000000  0.73939100  0.72356265  1
  C  C48  1  0.50000000  0.26041436  0.10968558  1
  C  C49  1  0.50000000  0.26009235  0.44321148  1
  C  C50  1  0.50000000  0.26050457  0.77652884  1
  C  C51  1  0.50000000  0.31981797  0.11061040  1
  C  C52  1  0.50000000  0.31950754  0.44550752  1
  C  C53  1  0.50000000  0.31966356  0.77767554  1
  C  C54  1  0.50000000  0.37971670  0.77757210  1
  C  C55  1  0.50000000  0.43979914  0.77745177  1
  C  C56  1  0.50000000  0.49989079  0.77738992  1
  C  C57  1  0.50000000  0.55986505  0.77740614  1
  C  C58  1  0.50000000  0.61996093  0.77748820  1
  C  C59  1  0.50000000  0.68001096  0.77746088  1
  C  C60  1  0.50000000  0.73975806  0.10843059  1
  C  C61  1  0.50000000  0.74043960  0.44480637  1
  C  C62  1  0.50000000  0.73938537  0.77638732  1
  C  C63  1  0.50000000  0.28995438  0.13852233  1
  C  C64  1  0.50000000  0.28932418  0.47265940  1
  C  C65  1  0.50000000  0.28969780  0.80525440  1
  C  C66  1  0.50000000  0.34919768  0.13968330  1
  C  C67  1  0.50000000  0.34854747  0.47468507  1
  C  C68  1  0.50000000  0.34976658  0.80540700  1
  C  C69  1  0.50000000  0.40971711  0.80484301  1
  C  C70  1  0.50000000  0.46985526  0.80455322  1
  C  C71  1  0.50000000  0.52991034  0.80463604  1
  C  C72  1  0.50000000  0.58992977  0.80460543  1
  C  C73  1  0.50000000  0.64997058  0.80481755  1
  C  C74  1  0.50000000  0.71131721  0.13909522  1
  C  C75  1  0.50000000  0.71239967  0.47581283  1
  C  C76  1  0.50000000  0.71002783  0.80498298  1
  C  C77  1  0.50000000  0.29005872  0.19437984  1
  C  C78  1  0.50000000  0.28943005  0.52831147  1
  C  C79  1  0.50000000  0.28971356  0.86101213  1
  C  C80  1  0.50000000  0.34933865  0.19262211  1
  C  C81  1  0.50000000  0.34946190  0.52817366  1
  C  C82  1  0.50000000  0.34984269  0.86044515  1
  C  C83  1  0.50000000  0.41008315  0.53175643  1
  C  C84  1  0.50000000  0.40977664  0.85988035  1
  C  C85  1  0.50000000  0.46995111  0.53180500  1
  C  C86  1  0.50000000  0.46995427  0.85945884  1
  C  C87  1  0.50000000  0.53007909  0.53162572  1
  C  C88  1  0.50000000  0.52995964  0.85955756  1
  C  C89  1  0.50000000  0.59022617  0.53178213  1
  C  C90  1  0.50000000  0.58993282  0.85944235  1
  C  C91  1  0.50000000  0.65013832  0.53192632  1
  C  C92  1  0.50000000  0.65001557  0.85976999  1
  C  C93  1  0.50000000  0.71099857  0.19207191  1
  C  C94  1  0.50000000  0.71108527  0.52921680  1
  C  C95  1  0.50000000  0.70992168  0.86011622  1
  C  C96  1  0.50000000  0.26069198  0.22358331  1
  C  C97  1  0.50000000  0.26010204  0.55734945  1
  C  C98  1  0.50000000  0.26030344  0.88982091  1
  C  C99  1  0.50000000  0.32005233  0.22201295  1
  C  C100  1  0.50000000  0.31938330  0.55620146  1
  C  C101  1  0.50000000  0.31949889  0.88843578  1
  C  C102  1  0.50000000  0.38033243  0.55670068  1
  C  C103  1  0.50000000  0.37978510  0.88771993  1
  C  C104  1  0.50000000  0.44026343  0.55822781  1
  C  C105  1  0.50000000  0.43996091  0.88660240  1
  C  C106  1  0.50000000  0.50005606  0.55788196  1
  C  C107  1  0.50000000  0.49994786  0.88670271  1
  C  C108  1  0.50000000  0.55996827  0.55783304  1
  C  C109  1  0.50000000  0.55995832  0.88670872  1
  C  C110  1  0.50000000  0.61985355  0.55821274  1
  C  C111  1  0.50000000  0.62000006  0.88652589  1
  C  C112  1  0.50000000  0.67993778  0.55690972  1
  C  C113  1  0.50000000  0.68022740  0.88733985  1
  C  C114  1  0.50000000  0.73911233  0.22358512  1
  C  C115  1  0.50000000  0.74031969  0.55912645  1
  C  C116  1  0.50000000  0.73980546  0.88853930  1
  C  C117  1  0.50000000  0.26066949  0.27640923  1
  C  C118  1  0.50000000  0.26029645  0.61017528  1
  C  C119  1  0.50000000  0.26012450  0.94264705  1
  C  C120  1  0.50000000  0.32003101  0.27796376  1
  C  C121  1  0.50000000  0.31949557  0.61155230  1
  C  C122  1  0.50000000  0.31941413  0.94378295  1
  C  C123  1  0.50000000  0.37978585  0.61228809  1
  C  C124  1  0.50000000  0.38033157  0.94329433  1
  C  C125  1  0.50000000  0.43996769  0.61340488  1
  C  C126  1  0.50000000  0.44024060  0.94177303  1
  C  C127  1  0.50000000  0.49995465  0.61329402  1
  C  C128  1  0.50000000  0.50004923  0.94209285  1
  C  C129  1  0.50000000  0.55995670  0.61328935  1
  C  C130  1  0.50000000  0.55996875  0.94214890  1
  C  C131  1  0.50000000  0.61999487  0.61348494  1
  C  C132  1  0.50000000  0.61985975  0.94179474  1
  C  C133  1  0.50000000  0.68022589  0.61265724  1
  C  C134  1  0.50000000  0.67994478  0.94309769  1
  C  C135  1  0.50000000  0.73914749  0.27647715  1
  C  C136  1  0.50000000  0.73983980  0.61146454  1
  C  C137  1  0.50000000  0.74028692  0.94085407  1
  H  H138  1  0.50000000  0.23651052  0.03749130  1
  H  H139  1  0.50000000  0.23693752  0.37038898  1
  H  H140  1  0.50000000  0.23699546  0.70376217  1
  H  H141  1  0.50000000  0.76449620  0.03717003  1
  H  H142  1  0.50000000  0.76346977  0.37202971  1
  H  H143  1  0.50000000  0.76284793  0.70380313  1
  H  H144  1  0.50000000  0.23699893  0.12970420  1
  H  H145  1  0.50000000  0.23647862  0.46256191  1
  H  H146  1  0.50000000  0.23699286  0.79616652  1
  H  H147  1  0.50000000  0.76333095  0.12817707  1
  H  H148  1  0.50000000  0.76452466  0.46285208  1
  H  H149  1  0.50000000  0.76284146  0.79612375  1
  H  H150  1  0.50000000  0.23714674  0.20397960  1
  H  H151  1  0.50000000  0.23656074  0.53773890  1
  H  H152  1  0.50000000  0.23689928  0.86984658  1
  H  H153  1  0.50000000  0.76299519  0.20486027  1
  H  H154  1  0.50000000  0.76378791  0.53936555  1
  H  H155  1  0.50000000  0.76307464  0.86829313  1
  H  H156  1  0.50000000  0.23713055  0.29606021  1
  H  H157  1  0.50000000  0.23689714  0.63011507  1
  H  H158  1  0.50000000  0.23659246  0.96223307  1
  H  H159  1  0.50000000  0.76299383  0.29534646  1
  H  H160  1  0.50000000  0.76302061  0.63200238  1
  H  H161  1  0.50000000  0.76384324  0.96032819  1
  H  H162  1  0.50000000  0.37288475  0.28775239  1
  H  H163  1  0.50000000  0.41132108  0.01022248  1
  H  H164  1  0.50000000  0.46983813  0.01026148  1
  H  H165  1  0.50000000  0.53010622  0.01041169  1
  H  H166  1  0.50000000  0.59039966  0.01031241  1
  H  H167  1  0.50000000  0.64895310  0.01008014  1
  H  H168  1  0.50000000  0.68716809  0.28919519  1
  H  H169  1  0.50000000  0.37160541  0.04608758  1
  H  H170  1  0.50000000  0.37265886  0.38006312  1
  H  H171  1  0.50000000  0.68920453  0.04477595  1
  H  H172  1  0.50000000  0.68761115  0.38003266  1
  H  H173  1  0.50000000  0.37273239  0.12001706  1
  H  H174  1  0.50000000  0.37150637  0.45374727  1
  H  H175  1  0.50000000  0.68750116  0.12005753  1
  H  H176  1  0.50000000  0.68922501  0.45526330  1
  H  H177  1  0.50000000  0.37295572  0.21201776  1
  H  H178  1  0.50000000  0.41131655  0.48978283  1
  H  H179  1  0.50000000  0.46986786  0.48969454  1
  H  H180  1  0.50000000  0.53011583  0.48950713  1
  H  H181  1  0.50000000  0.59037878  0.48965824  1
  H  H182  1  0.50000000  0.64896098  0.48993897  1
  H  H183  1  0.50000000  0.68709161  0.21078673  1
