# generated using pymatgen
data_H16C63
_symmetry_space_group_name_H-M   'P 1'
_cell_length_a   20.00000000
_cell_length_b   40.19450000
_cell_length_c   26.05300630
_cell_angle_alpha   90.00000000
_cell_angle_beta   90.00000000
_cell_angle_gamma   90.00000000
_symmetry_Int_Tables_number   1
_chemical_formula_structural   H16C63
_chemical_formula_sum   'H32 C126'
_cell_volume   20943.75123432
_cell_formula_units_Z   2
loop_
 _symmetry_equiv_pos_site_id
 _symmetry_equiv_pos_as_xyz
  1  'x, y, z'
loop_
 _atom_site_type_symbol
 _atom_site_label
 _atom_site_symmetry_multiplicity
 _atom_site_fract_x
 _atom_site_fract_y
 _atom_site_fract_z
 _atom_site_occupancy
  C  C0  1  0.50000000  0.28676079  0.61152362  1
  C  C1  1  0.50000000  0.28751270  0.77633426  1
  C  C2  1  0.50000000  0.28633969  0.94092824  1
  C  C3  1  0.50000000  0.31269943  0.13830282  1
  C  C4  1  0.50000000  0.31719689  0.63951160  1
  C  C5  1  0.50000000  0.31197862  0.30825430  1
  C  C6  1  0.50000000  0.31740977  0.80474291  1
  C  C7  1  0.50000000  0.31543199  0.47611238  1
  C  C8  1  0.50000000  0.31637168  0.96965925  1
  C  C9  1  0.50000000  0.28625260  0.55886686  1
  C  C10  1  0.50000000  0.28749612  0.72338747  1
  C  C11  1  0.50000000  0.28686040  0.88829159  1
  C  C12  1  0.50000000  0.34275010  0.10998602  1
  C  C13  1  0.50000000  0.34769200  0.61208352  1
  C  C14  1  0.50000000  0.34135112  0.27835746  1
  C  C15  1  0.50000000  0.34819387  0.77752305  1
  C  C16  1  0.50000000  0.34418127  0.44651883  1
  C  C17  1  0.50000000  0.34745960  0.94288603  1
  C  C18  1  0.50000000  0.37278404  0.13848201  1
  C  C19  1  0.50000000  0.37885583  0.63922409  1
  C  C20  1  0.50000000  0.37202085  0.30597379  1
  C  C21  1  0.50000000  0.37893212  0.80539883  1
  C  C22  1  0.50000000  0.37576733  0.47315125  1
  C  C23  1  0.50000000  0.37761581  0.97179442  1
  C  C24  1  0.50000000  0.31548183  0.02376021  1
  C  C25  1  0.50000000  0.31631312  0.53021422  1
  C  C26  1  0.50000000  0.31200333  0.19176707  1
  C  C27  1  0.50000000  0.31737955  0.69500786  1
  C  C28  1  0.50000000  0.31267116  0.36171763  1
  C  C29  1  0.50000000  0.31726360  0.86031163  1
  C  C30  1  0.50000000  0.34420546  0.05344260  1
  C  C31  1  0.50000000  0.34739214  0.55702801  1
  C  C32  1  0.50000000  0.34137256  0.22164594  1
  C  C33  1  0.50000000  0.34815442  0.72223348  1
  C  C34  1  0.50000000  0.34273262  0.38999763  1
  C  C35  1  0.50000000  0.34775360  0.88781290  1
  C  C36  1  0.50000000  0.40412592  0.11136294  1
  C  C37  1  0.50000000  0.40921517  0.61110283  1
  C  C38  1  0.50000000  0.40255179  0.27745822  1
  C  C39  1  0.50000000  0.40946587  0.77766436  1
  C  C40  1  0.50000000  0.40586977  0.44424870  1
  C  C41  1  0.50000000  0.40925869  0.94493783  1
  C  C42  1  0.50000000  0.43352778  0.14084943  1
  C  C43  1  0.50000000  0.43995041  0.63915579  1
  C  C44  1  0.50000000  0.43316613  0.30403933  1
  C  C45  1  0.50000000  0.44001942  0.80538876  1
  C  C46  1  0.50000000  0.43737309  0.47063901  1
  C  C47  1  0.50000000  0.43954171  0.97316705  1
  C  C48  1  0.50000000  0.37582597  0.02683213  1
  C  C49  1  0.50000000  0.37755081  0.52817490  1
  C  C50  1  0.50000000  0.37204183  0.19401781  1
  C  C51  1  0.50000000  0.37891013  0.69449106  1
  C  C52  1  0.50000000  0.37276227  0.36150479  1
  C  C53  1  0.50000000  0.37892157  0.86071762  1
  C  C54  1  0.50000000  0.40594938  0.05574747  1
  C  C55  1  0.50000000  0.40918216  0.55505799  1
  C  C56  1  0.50000000  0.40256533  0.22256822  1
  C  C57  1  0.50000000  0.40944977  0.72225617  1
  C  C58  1  0.50000000  0.40409278  0.38864324  1
  C  C59  1  0.50000000  0.40929097  0.88888108  1
  C  C60  1  0.50000000  0.46387800  0.11482070  1
  C  C61  1  0.50000000  0.47059515  0.61192856  1
  C  C62  1  0.50000000  0.46326286  0.27639594  1
  C  C63  1  0.50000000  0.47064101  0.77748632  1
  C  C64  1  0.50000000  0.46535583  0.43758652  1
  C  C65  1  0.50000000  0.47096641  0.94381113  1
  C  C66  1  0.50000000  0.50134760  0.64035171  1
  C  C67  1  0.50000000  0.50139710  0.80458930  1
  C  C68  1  0.50000000  0.50257788  0.96570363  1
  C  C69  1  0.50000000  0.43748973  0.02939424  1
  C  C70  1  0.50000000  0.43946134  0.52683776  1
  C  C71  1  0.50000000  0.43319360  0.19603459  1
  C  C72  1  0.50000000  0.44000708  0.69454648  1
  C  C73  1  0.50000000  0.43351074  0.35920867  1
  C  C74  1  0.50000000  0.44000103  0.86078007  1
  C  C75  1  0.50000000  0.46546381  0.06252924  1
  C  C76  1  0.50000000  0.47093812  0.55610359  1
  C  C77  1  0.50000000  0.46326962  0.22377077  1
  C  C78  1  0.50000000  0.47063065  0.72246216  1
  C  C79  1  0.50000000  0.46385169  0.38529745  1
  C  C80  1  0.50000000  0.47064814  0.88798820  1
  C  C81  1  0.50000000  0.53251742  0.61495220  1
  C  C82  1  0.50000000  0.53227619  0.77733287  1
  C  C83  1  0.50000000  0.53298472  0.93940268  1
  C  C84  1  0.50000000  0.56333570  0.64139325  1
  C  C85  1  0.50000000  0.56328733  0.80394363  1
  C  C86  1  0.50000000  0.56297420  0.96685526  1
  C  C87  1  0.50000000  0.50251047  0.53417271  1
  C  C88  1  0.50000000  0.50136854  0.69532640  1
  C  C89  1  0.50000000  0.50139828  0.85957225  1
  C  C90  1  0.50000000  0.53286054  0.56051730  1
  C  C91  1  0.50000000  0.53226335  0.72253734  1
  C  C92  1  0.50000000  0.53259115  0.88493324  1
  C  C93  1  0.50000000  0.59394317  0.61370891  1
  C  C94  1  0.50000000  0.59424540  0.77724812  1
  C  C95  1  0.50000000  0.59385276  0.94145140  1
  C  C96  1  0.50000000  0.62474110  0.64021940  1
  C  C97  1  0.50000000  0.62485103  0.80446232  1
  C  C98  1  0.50000000  0.62418417  0.96826555  1
  C  C99  1  0.50000000  0.56283471  0.53304129  1
  C  C100  1  0.50000000  0.56325686  0.69585805  1
  C  C101  1  0.50000000  0.56338841  0.85841231  1
  C  C102  1  0.50000000  0.59374243  0.55828740  1
  C  C103  1  0.50000000  0.59422798  0.72247400  1
  C  C104  1  0.50000000  0.59401570  0.88602178  1
  C  C105  1  0.50000000  0.65536266  0.61228928  1
  C  C106  1  0.50000000  0.65581584  0.77727145  1
  C  C107  1  0.50000000  0.65496285  0.94255289  1
  C  C108  1  0.50000000  0.68646307  0.63875010  1
  C  C109  1  0.50000000  0.68654443  0.80471635  1
  C  C110  1  0.50000000  0.68560722  0.96971126  1
  C  C111  1  0.50000000  0.62401604  0.53131012  1
  C  C112  1  0.50000000  0.62481888  0.69516470  1
  C  C113  1  0.50000000  0.62480143  0.85941045  1
  C  C114  1  0.50000000  0.65481436  0.55693296  1
  C  C115  1  0.50000000  0.65580289  0.72225403  1
  C  C116  1  0.50000000  0.65546012  0.88721584  1
  C  C117  1  0.50000000  0.71595642  0.60974174  1
  C  C118  1  0.50000000  0.71628029  0.77624740  1
  C  C119  1  0.50000000  0.71553728  0.94334526  1
  C  C120  1  0.50000000  0.68539052  0.52958345  1
  C  C121  1  0.50000000  0.68650319  0.69470302  1
  C  C122  1  0.50000000  0.68653060  0.86065635  1
  C  C123  1  0.50000000  0.71535258  0.55587740  1
  C  C124  1  0.50000000  0.71626150  0.72309241  1
  C  C125  1  0.50000000  0.71607906  0.88948863  1
  H  H126  1  0.50000000  0.26308679  0.63207980  1
  H  H127  1  0.50000000  0.26353490  0.79601357  1
  H  H128  1  0.50000000  0.26252895  0.96142974  1
  H  H129  1  0.50000000  0.26248956  0.53817870  1
  H  H130  1  0.50000000  0.26350327  0.70371125  1
  H  H131  1  0.50000000  0.26315636  0.86785901  1
  H  H132  1  0.50000000  0.74015072  0.62890261  1
  H  H133  1  0.50000000  0.74029434  0.79592831  1
  H  H134  1  0.50000000  0.73905624  0.96459172  1
  H  H135  1  0.50000000  0.73892039  0.53474113  1
  H  H136  1  0.50000000  0.74023800  0.70328966  1
  H  H137  1  0.50000000  0.74017355  0.87001782  1
  H  H138  1  0.50000000  0.68486721  0.48751205  1
  H  H139  1  0.50000000  0.28876919  0.11826426  1
  H  H140  1  0.50000000  0.28763690  0.28940080  1
  H  H141  1  0.50000000  0.29092943  0.45776582  1
  H  H142  1  0.50000000  0.29090878  0.04185898  1
  H  H143  1  0.50000000  0.28768731  0.21071905  1
  H  H144  1  0.50000000  0.28874378  0.38179442  1
  H  H145  1  0.50000000  0.68529663  0.01175775  1
  H  H146  1  0.50000000  0.62357609  0.48921324  1
  H  H147  1  0.50000000  0.62380159  0.01033696  1
  H  H148  1  0.50000000  0.56234374  0.00896516  1
  H  H149  1  0.50000000  0.56215534  0.49097745  1
  H  H150  1  0.50000000  0.48744073  0.13553095  1
  H  H151  1  0.50000000  0.48717918  0.29614695  1
  H  H152  1  0.50000000  0.49047888  0.45082634  1
  H  H153  1  0.50000000  0.50682373  0.00612599  1
  H  H154  1  0.50000000  0.49066737  0.04958605  1
  H  H155  1  0.50000000  0.48721840  0.20415265  1
  H  H156  1  0.50000000  0.48745708  0.36470270  1
  H  H157  1  0.50000000  0.50690339  0.49377574  1
