# generated using pymatgen
data_H17C69
_symmetry_space_group_name_H-M   'P 1'
_cell_length_a   10.00000000
_cell_length_b   41.10890000
_cell_length_c   25.84951805
_cell_angle_alpha   90.00000000
_cell_angle_beta   90.00000000
_cell_angle_gamma   90.00000000
_symmetry_Int_Tables_number   1
_chemical_formula_structural   H17C69
_chemical_formula_sum   'H34 C138'
_cell_volume   10626.45252499
_cell_formula_units_Z   2
loop_
 _symmetry_equiv_pos_site_id
 _symmetry_equiv_pos_as_xyz
  1  'x, y, z'
loop_
 _atom_site_type_symbol
 _atom_site_label
 _atom_site_symmetry_multiplicity
 _atom_site_fract_x
 _atom_site_fract_y
 _atom_site_fract_z
 _atom_site_occupancy
  C  C0  1  0.50000000  0.29004655  0.30522472  1
  C  C1  1  0.50000000  0.28985681  0.63874943  1
  C  C2  1  0.50000000  0.28974020  0.97179965  1
  C  C3  1  0.50000000  0.35022114  0.30569408  1
  C  C4  1  0.50000000  0.35011913  0.63899071  1
  C  C5  1  0.50000000  0.34993808  0.97206330  1
  C  C6  1  0.50000000  0.40933283  0.30687797  1
  C  C7  1  0.50000000  0.41012380  0.63912572  1
  C  C8  1  0.50000000  0.40973248  0.97205988  1
  C  C9  1  0.50000000  0.47027285  0.63943522  1
  C  C10  1  0.50000000  0.47029731  0.96950381  1
  C  C11  1  0.50000000  0.53051159  0.63972220  1
  C  C12  1  0.50000000  0.53015713  0.96999895  1
  C  C13  1  0.50000000  0.59044611  0.63951360  1
  C  C14  1  0.50000000  0.59007919  0.97045497  1
  C  C15  1  0.50000000  0.65039870  0.63909266  1
  C  C16  1  0.50000000  0.64984283  0.97096193  1
  C  C17  1  0.50000000  0.71078735  0.63778048  1
  C  C18  1  0.50000000  0.70974251  0.97240006  1
  C  C19  1  0.50000000  0.28971690  0.02793783  1
  C  C20  1  0.50000000  0.29001180  0.36140735  1
  C  C21  1  0.50000000  0.28994965  0.69479593  1
  C  C22  1  0.50000000  0.34979189  0.02733849  1
  C  C23  1  0.50000000  0.35018354  0.36124043  1
  C  C24  1  0.50000000  0.35015072  0.69441681  1
  C  C25  1  0.50000000  0.40875346  0.02616947  1
  C  C26  1  0.50000000  0.40926646  0.36035994  1
  C  C27  1  0.50000000  0.41012235  0.69450450  1
  C  C28  1  0.50000000  0.47025128  0.69492166  1
  C  C29  1  0.50000000  0.53051061  0.69504569  1
  C  C30  1  0.50000000  0.59055198  0.69480871  1
  C  C31  1  0.50000000  0.65051815  0.69465301  1
  C  C32  1  0.50000000  0.71077706  0.69433312  1
  C  C33  1  0.50000000  0.26047920  0.05668633  1
  C  C34  1  0.50000000  0.26067899  0.38988169  1
  C  C35  1  0.50000000  0.26071901  0.72328657  1
  C  C36  1  0.50000000  0.31968880  0.05541983  1
  C  C37  1  0.50000000  0.31984072  0.38902100  1
  C  C38  1  0.50000000  0.31999184  0.72223691  1
  C  C39  1  0.50000000  0.37986634  0.05466798  1
  C  C40  1  0.50000000  0.38004290  0.38889626  1
  C  C41  1  0.50000000  0.38010285  0.72211538  1
  C  C42  1  0.50000000  0.44022976  0.72231795  1
  C  C43  1  0.50000000  0.50035480  0.72237386  1
  C  C44  1  0.50000000  0.56054842  0.72233297  1
  C  C45  1  0.50000000  0.62067115  0.72222116  1
  C  C46  1  0.50000000  0.68077720  0.72217501  1
  C  C47  1  0.50000000  0.73980273  0.72318678  1
  C  C48  1  0.50000000  0.26064588  0.11006778  1
  C  C49  1  0.50000000  0.26049465  0.44324096  1
  C  C50  1  0.50000000  0.26071044  0.77673402  1
  C  C51  1  0.50000000  0.31983680  0.11093722  1
  C  C52  1  0.50000000  0.31968376  0.44454869  1
  C  C53  1  0.50000000  0.31998566  0.77775465  1
  C  C54  1  0.50000000  0.38006189  0.11106692  1
  C  C55  1  0.50000000  0.37985098  0.44530263  1
  C  C56  1  0.50000000  0.38009719  0.77784903  1
  C  C57  1  0.50000000  0.44022825  0.77766043  1
  C  C58  1  0.50000000  0.50035584  0.77761868  1
  C  C59  1  0.50000000  0.56055123  0.77766622  1
  C  C60  1  0.50000000  0.62067109  0.77777808  1
  C  C61  1  0.50000000  0.68077388  0.77782759  1
  C  C62  1  0.50000000  0.73979917  0.77686472  1
  C  C63  1  0.50000000  0.29000057  0.13852027  1
  C  C64  1  0.50000000  0.28971471  0.47202780  1
  C  C65  1  0.50000000  0.28994658  0.80521020  1
  C  C66  1  0.50000000  0.35019253  0.13871793  1
  C  C67  1  0.50000000  0.34977991  0.47262107  1
  C  C68  1  0.50000000  0.35014485  0.80555642  1
  C  C69  1  0.50000000  0.40926748  0.13966386  1
  C  C70  1  0.50000000  0.40876545  0.47377684  1
  C  C71  1  0.50000000  0.41011850  0.80546632  1
  C  C72  1  0.50000000  0.47025112  0.80507236  1
  C  C73  1  0.50000000  0.53051481  0.80495756  1
  C  C74  1  0.50000000  0.59055391  0.80520119  1
  C  C75  1  0.50000000  0.65051469  0.80535438  1
  C  C76  1  0.50000000  0.71076921  0.80568679  1
  C  C77  1  0.50000000  0.29004045  0.19471302  1
  C  C78  1  0.50000000  0.28973553  0.52816587  1
  C  C79  1  0.50000000  0.28984457  0.86125834  1
  C  C80  1  0.50000000  0.35021397  0.19424117  1
  C  C81  1  0.50000000  0.34994279  0.52791332  1
  C  C82  1  0.50000000  0.35010827  0.86098081  1
  C  C83  1  0.50000000  0.40932907  0.19314327  1
  C  C84  1  0.50000000  0.40975925  0.52788516  1
  C  C85  1  0.50000000  0.41011810  0.86085055  1
  C  C86  1  0.50000000  0.47031148  0.53045056  1
  C  C87  1  0.50000000  0.47026914  0.86056541  1
  C  C88  1  0.50000000  0.53016239  0.53004207  1
  C  C89  1  0.50000000  0.53051765  0.86028743  1
  C  C90  1  0.50000000  0.59007372  0.52963461  1
  C  C91  1  0.50000000  0.59044658  0.86051103  1
  C  C92  1  0.50000000  0.64984027  0.52912997  1
  C  C93  1  0.50000000  0.65039545  0.86092660  1
  C  C94  1  0.50000000  0.70975082  0.52764699  1
  C  C95  1  0.50000000  0.71079581  0.86223447  1
  C  C96  1  0.50000000  0.26079482  0.22324968  1
  C  C97  1  0.50000000  0.26049077  0.55685789  1
  C  C98  1  0.50000000  0.26049830  0.88976249  1
  C  C99  1  0.50000000  0.31997248  0.22221979  1
  C  C100  1  0.50000000  0.31968862  0.55573367  1
  C  C101  1  0.50000000  0.31979263  0.88879718  1
  C  C102  1  0.50000000  0.38014235  0.22186933  1
  C  C103  1  0.50000000  0.37988031  0.55577701  1
  C  C104  1  0.50000000  0.37994368  0.88846536  1
  C  C105  1  0.50000000  0.44059066  0.55600679  1
  C  C106  1  0.50000000  0.44020471  0.88831342  1
  C  C107  1  0.50000000  0.50046718  0.55685247  1
  C  C108  1  0.50000000  0.50036661  0.88754754  1
  C  C109  1  0.50000000  0.56024607  0.55624203  1
  C  C110  1  0.50000000  0.56036836  0.88784466  1
  C  C111  1  0.50000000  0.62009891  0.55593929  1
  C  C112  1  0.50000000  0.62041163  0.88812146  1
  C  C113  1  0.50000000  0.67987732  0.55522861  1
  C  C114  1  0.50000000  0.68040413  0.88896986  1
  C  C115  1  0.50000000  0.73907403  0.55408459  1
  C  C116  1  0.50000000  0.73964836  0.89161366  1
  C  C117  1  0.50000000  0.26080683  0.27665579  1
  C  C118  1  0.50000000  0.26053449  0.61022833  1
  C  C119  1  0.50000000  0.26047644  0.94315452  1
  C  C120  1  0.50000000  0.31997434  0.27772882  1
  C  C121  1  0.50000000  0.31980123  0.61119359  1
  C  C122  1  0.50000000  0.31969186  0.94424573  1
  C  C123  1  0.50000000  0.38015707  0.27816657  1
  C  C124  1  0.50000000  0.37995340  0.61148932  1
  C  C125  1  0.50000000  0.37986488  0.94416987  1
  C  C126  1  0.50000000  0.44021054  0.61167793  1
  C  C127  1  0.50000000  0.44057899  0.94393797  1
  C  C128  1  0.50000000  0.50036249  0.61245574  1
  C  C129  1  0.50000000  0.50046378  0.94315256  1
  C  C130  1  0.50000000  0.56036378  0.61219912  1
  C  C131  1  0.50000000  0.56025659  0.94382571  1
  C  C132  1  0.50000000  0.62041091  0.61192609  1
  C  C133  1  0.50000000  0.62010380  0.94413582  1
  C  C134  1  0.50000000  0.68040338  0.61104934  1
  C  C135  1  0.50000000  0.67986925  0.94481010  1
  C  C136  1  0.50000000  0.73963986  0.60842103  1
  C  C137  1  0.50000000  0.73905738  0.94593732  1
  H  H138  1  0.50000000  0.23702383  0.03676853  1
  H  H139  1  0.50000000  0.23729576  0.36981419  1
  H  H140  1  0.50000000  0.23730362  0.70322031  1
  H  H141  1  0.50000000  0.76322912  0.70318817  1
  H  H142  1  0.50000000  0.23732682  0.13037151  1
  H  H143  1  0.50000000  0.23694953  0.46285902  1
  H  H144  1  0.50000000  0.23730079  0.79683158  1
  H  H145  1  0.50000000  0.76320943  0.79692032  1
  H  H146  1  0.50000000  0.23739138  0.20320342  1
  H  H147  1  0.50000000  0.23701367  0.53699207  1
  H  H148  1  0.50000000  0.23709528  0.86959502  1
  H  H149  1  0.50000000  0.76203877  0.53251040  1
  H  H150  1  0.50000000  0.76338060  0.87252099  1
  H  H151  1  0.50000000  0.23740947  0.29672251  1
  H  H152  1  0.50000000  0.23708015  0.63019268  1
  H  H153  1  0.50000000  0.23709045  0.96329056  1
  H  H154  1  0.50000000  0.76330579  0.62772543  1
  H  H155  1  0.50000000  0.76202717  0.96749771  1
  H  H156  1  0.50000000  0.43278597  0.28699517  1
  H  H157  1  0.50000000  0.47125512  0.01175231  1
  H  H158  1  0.50000000  0.52991832  0.01244131  1
  H  H159  1  0.50000000  0.59000556  0.01290999  1
  H  H160  1  0.50000000  0.64961207  0.01341055  1
  H  H161  1  0.50000000  0.70917969  0.01481060  1
  H  H162  1  0.50000000  0.43174787  0.04700096  1
  H  H163  1  0.50000000  0.43268691  0.38038518  1
  H  H164  1  0.50000000  0.43272946  0.11976884  1
  H  H165  1  0.50000000  0.43170340  0.45275197  1
  H  H166  1  0.50000000  0.43279085  0.21300899  1
  H  H167  1  0.50000000  0.47127340  0.48817831  1
  H  H168  1  0.50000000  0.52994333  0.48759191  1
  H  H169  1  0.50000000  0.59000024  0.48719417  1
  H  H170  1  0.50000000  0.64959798  0.48670965  1
  H  H171  1  0.50000000  0.70917349  0.48525962  1
