# generated using pymatgen
data_H4C15
_symmetry_space_group_name_H-M   'P 1'
_cell_length_a   20.00000000
_cell_length_b   37.22700000
_cell_length_c   26.06059259
_cell_angle_alpha   90.00000000
_cell_angle_beta   90.00000000
_cell_angle_gamma   90.00000000
_symmetry_Int_Tables_number   1
_chemical_formula_structural   H4C15
_chemical_formula_sum   'H32 C120'
_cell_volume   19403.15360463
_cell_formula_units_Z   8
loop_
 _symmetry_equiv_pos_site_id
 _symmetry_equiv_pos_as_xyz
  1  'x, y, z'
loop_
 _atom_site_type_symbol
 _atom_site_label
 _atom_site_symmetry_multiplicity
 _atom_site_fract_x
 _atom_site_fract_y
 _atom_site_fract_z
 _atom_site_occupancy
  C  C0  1  0.50000000  0.31557953  0.55674479  1
  C  C1  1  0.50000000  0.31549261  0.88689188  1
  C  C2  1  0.50000000  0.38185517  0.56093935  1
  C  C3  1  0.50000000  0.38220343  0.88468764  1
  C  C4  1  0.50000000  0.45534265  0.22372587  1
  C  C5  1  0.50000000  0.44866344  0.55676052  1
  C  C6  1  0.50000000  0.44905908  0.88757596  1
  C  C7  1  0.50000000  0.52088187  0.22254480  1
  C  C8  1  0.50000000  0.51509652  0.55528674  1
  C  C9  1  0.50000000  0.51525116  0.88881314  1
  C  C10  1  0.50000000  0.58692628  0.22166835  1
  C  C11  1  0.50000000  0.58188188  0.55667931  1
  C  C12  1  0.50000000  0.58175204  0.88786060  1
  C  C13  1  0.50000000  0.64889482  0.55755426  1
  C  C14  1  0.50000000  0.64838201  0.88760611  1
  C  C15  1  0.50000000  0.71436017  0.55885501  1
  C  C16  1  0.50000000  0.71406850  0.88776310  1
  C  C17  1  0.50000000  0.31552016  0.61315456  1
  C  C18  1  0.50000000  0.31558306  0.94332643  1
  C  C19  1  0.50000000  0.38220267  0.61531354  1
  C  C20  1  0.50000000  0.38185255  0.93908105  1
  C  C21  1  0.50000000  0.45535416  0.27637873  1
  C  C22  1  0.50000000  0.44906831  0.61234827  1
  C  C23  1  0.50000000  0.44867589  0.94315317  1
  C  C24  1  0.50000000  0.52089003  0.27744333  1
  C  C25  1  0.50000000  0.51525458  0.61111989  1
  C  C26  1  0.50000000  0.51507341  0.94467595  1
  C  C27  1  0.50000000  0.58694308  0.27830705  1
  C  C28  1  0.50000000  0.58174828  0.61205488  1
  C  C29  1  0.50000000  0.58187264  0.94324364  1
  C  C30  1  0.50000000  0.64834888  0.61229854  1
  C  C31  1  0.50000000  0.64888979  0.94236013  1
  C  C32  1  0.50000000  0.71405298  0.61221381  1
  C  C33  1  0.50000000  0.71433829  0.94112844  1
  C  C34  1  0.50000000  0.28325753  0.64085666  1
  C  C35  1  0.50000000  0.28490010  0.97331898  1
  C  C36  1  0.50000000  0.34854950  0.64119610  1
  C  C37  1  0.50000000  0.34979854  0.96714927  1
  C  C38  1  0.50000000  0.41574521  0.64065351  1
  C  C39  1  0.50000000  0.41457181  0.96512159  1
  C  C40  1  0.50000000  0.48784617  0.30411229  1
  C  C41  1  0.50000000  0.48224974  0.63928010  1
  C  C42  1  0.50000000  0.48220676  0.97276191  1
  C  C43  1  0.50000000  0.55386018  0.30595724  1
  C  C44  1  0.50000000  0.54839025  0.63921828  1
  C  C45  1  0.50000000  0.54906433  0.97172955  1
  C  C46  1  0.50000000  0.61868583  0.30816320  1
  C  C47  1  0.50000000  0.61476039  0.63968465  1
  C  C48  1  0.50000000  0.61513137  0.97041218  1
  C  C49  1  0.50000000  0.68154677  0.63967992  1
  C  C50  1  0.50000000  0.68213173  0.96809037  1
  C  C51  1  0.50000000  0.28320239  0.69397132  1
  C  C52  1  0.50000000  0.34869641  0.69574457  1
  C  C53  1  0.50000000  0.41574843  0.69565260  1
  C  C54  1  0.50000000  0.48376204  0.02907089  1
  C  C55  1  0.50000000  0.48755185  0.35929069  1
  C  C56  1  0.50000000  0.48229897  0.69471544  1
  C  C57  1  0.50000000  0.55022695  0.02685775  1
  C  C58  1  0.50000000  0.55313711  0.36149735  1
  C  C59  1  0.50000000  0.54845674  0.69446027  1
  C  C60  1  0.50000000  0.61512788  0.02423095  1
  C  C61  1  0.50000000  0.61802423  0.36156345  1
  C  C62  1  0.50000000  0.61464077  0.69471882  1
  C  C63  1  0.50000000  0.68117343  0.69531431  1
  C  C64  1  0.50000000  0.31534864  0.72233461  1
  C  C65  1  0.50000000  0.38242550  0.72263203  1
  C  C66  1  0.50000000  0.45343386  0.06210317  1
  C  C67  1  0.50000000  0.45494206  0.38565916  1
  C  C68  1  0.50000000  0.44911955  0.72254102  1
  C  C69  1  0.50000000  0.51760157  0.05566534  1
  C  C70  1  0.50000000  0.51939993  0.38872384  1
  C  C71  1  0.50000000  0.51527735  0.72223620  1
  C  C72  1  0.50000000  0.58392631  0.05366941  1
  C  C73  1  0.50000000  0.58557717  0.38992414  1
  C  C74  1  0.50000000  0.58155274  0.72216205  1
  C  C75  1  0.50000000  0.64802031  0.72240661  1
  C  C76  1  0.50000000  0.71342241  0.72344851  1
  C  C77  1  0.50000000  0.31534688  0.77767067  1
  C  C78  1  0.50000000  0.38242062  0.77735963  1
  C  C79  1  0.50000000  0.45494632  0.11444934  1
  C  C80  1  0.50000000  0.45348553  0.43799235  1
  C  C81  1  0.50000000  0.44911407  0.77740581  1
  C  C82  1  0.50000000  0.51939753  0.11125865  1
  C  C83  1  0.50000000  0.51764606  0.44430998  1
  C  C84  1  0.50000000  0.51527317  0.77765296  1
  C  C85  1  0.50000000  0.58557725  0.11006180  1
  C  C86  1  0.50000000  0.58395529  0.44628523  1
  C  C87  1  0.50000000  0.58155300  0.77772695  1
  C  C88  1  0.50000000  0.64802524  0.77743585  1
  C  C89  1  0.50000000  0.71343671  0.77632064  1
  C  C90  1  0.50000000  0.28319644  0.80602793  1
  C  C91  1  0.50000000  0.34868716  0.80425743  1
  C  C92  1  0.50000000  0.41574344  0.80432055  1
  C  C93  1  0.50000000  0.48757008  0.14073670  1
  C  C94  1  0.50000000  0.48382694  0.47092707  1
  C  C95  1  0.50000000  0.48230473  0.80519581  1
  C  C96  1  0.50000000  0.55313824  0.13846901  1
  C  C97  1  0.50000000  0.55026720  0.47309292  1
  C  C98  1  0.50000000  0.54845320  0.80544461  1
  C  C99  1  0.50000000  0.61802741  0.13844584  1
  C  C100  1  0.50000000  0.61514780  0.47570114  1
  C  C101  1  0.50000000  0.61465569  0.80516579  1
  C  C102  1  0.50000000  0.68121511  0.80455660  1
  C  C103  1  0.50000000  0.28482806  0.52690731  1
  C  C104  1  0.50000000  0.28323300  0.85915772  1
  C  C105  1  0.50000000  0.34978140  0.53292351  1
  C  C106  1  0.50000000  0.34852490  0.85881708  1
  C  C107  1  0.50000000  0.41454490  0.53482630  1
  C  C108  1  0.50000000  0.41573369  0.85932482  1
  C  C109  1  0.50000000  0.48782456  0.19592578  1
  C  C110  1  0.50000000  0.48223098  0.52720990  1
  C  C111  1  0.50000000  0.48225507  0.86063215  1
  C  C112  1  0.50000000  0.55384470  0.19401390  1
  C  C113  1  0.50000000  0.54908508  0.52820265  1
  C  C114  1  0.50000000  0.54839438  0.86070320  1
  C  C115  1  0.50000000  0.61867490  0.19184360  1
  C  C116  1  0.50000000  0.61513397  0.52949514  1
  C  C117  1  0.50000000  0.61478660  0.86021299  1
  C  C118  1  0.50000000  0.68215211  0.53189747  1
  C  C119  1  0.50000000  0.68160526  0.86022436  1
  H  H120  1  0.50000000  0.73988703  0.53798263  1
  H  H121  1  0.50000000  0.73977146  0.86761497  1
  H  H122  1  0.50000000  0.73965521  0.63265122  1
  H  H123  1  0.50000000  0.73989166  0.96195882  1
  H  H124  1  0.50000000  0.25752370  0.62056942  1
  H  H125  1  0.50000000  0.25759392  0.95783168  1
  H  H126  1  0.50000000  0.25732069  0.71373052  1
  H  H127  1  0.50000000  0.73928003  0.70368603  1
  H  H128  1  0.50000000  0.73933827  0.79593841  1
  H  H129  1  0.50000000  0.25735782  0.78613185  1
  H  H130  1  0.50000000  0.25759797  0.54267117  1
  H  H131  1  0.50000000  0.25749571  0.87944031  1
  H  H132  1  0.50000000  0.42948073  0.20407613  1
  H  H133  1  0.50000000  0.42954387  0.29618832  1
  H  H134  1  0.50000000  0.28763280  0.01519429  1
  H  H135  1  0.50000000  0.35136760  0.00922000  1
  H  H136  1  0.50000000  0.41000690  0.00543000  1
  H  H137  1  0.50000000  0.64493387  0.28928645  1
  H  H138  1  0.50000000  0.68325823  0.00996539  1
  H  H139  1  0.50000000  0.64082371  0.04418131  1
  H  H140  1  0.50000000  0.64390451  0.38152858  1
  H  H141  1  0.50000000  0.42616093  0.04939232  1
  H  H142  1  0.50000000  0.42933773  0.36534412  1
  H  H143  1  0.50000000  0.42942939  0.13501546  1
  H  H144  1  0.50000000  0.42627370  0.45095141  1
  H  H145  1  0.50000000  0.64393844  0.11856956  1
  H  H146  1  0.50000000  0.64091565  0.45597898  1
  H  H147  1  0.50000000  0.28740134  0.48501971  1
  H  H148  1  0.50000000  0.35133953  0.49088968  1
  H  H149  1  0.50000000  0.40985297  0.49453601  1
  H  H150  1  0.50000000  0.64488401  0.21084747  1
  H  H151  1  0.50000000  0.68333204  0.49003857  1
