# generated using pymatgen
data_H17C69
_symmetry_space_group_name_H-M   'P 1'
_cell_length_a   10.00000000
_cell_length_b   41.10890000
_cell_length_c   26.06951036
_cell_angle_alpha   90.00000000
_cell_angle_beta   90.00000000
_cell_angle_gamma   90.00000000
_symmetry_Int_Tables_number   1
_chemical_formula_structural   H17C69
_chemical_formula_sum   'H34 C138'
_cell_volume   10716.88894607
_cell_formula_units_Z   2
loop_
 _symmetry_equiv_pos_site_id
 _symmetry_equiv_pos_as_xyz
  1  'x, y, z'
loop_
 _atom_site_type_symbol
 _atom_site_label
 _atom_site_symmetry_multiplicity
 _atom_site_fract_x
 _atom_site_fract_y
 _atom_site_fract_z
 _atom_site_occupancy
  C  C0  1  0.50000000  0.28793387  0.63901740  1
  C  C1  1  0.50000000  0.28892289  0.96973417  1
  C  C2  1  0.50000000  0.34828885  0.64053041  1
  C  C3  1  0.50000000  0.34890010  0.96822430  1
  C  C4  1  0.50000000  0.40827412  0.64175837  1
  C  C5  1  0.50000000  0.40872713  0.96659667  1
  C  C6  1  0.50000000  0.46896447  0.64065700  1
  C  C7  1  0.50000000  0.46761675  0.96528740  1
  C  C8  1  0.50000000  0.53431415  0.30415951  1
  C  C9  1  0.50000000  0.52906361  0.63935420  1
  C  C10  1  0.50000000  0.52905532  0.97289354  1
  C  C11  1  0.50000000  0.59406862  0.30597335  1
  C  C12  1  0.50000000  0.58894155  0.63923062  1
  C  C13  1  0.50000000  0.58961610  0.97183259  1
  C  C14  1  0.50000000  0.65276532  0.30822749  1
  C  C15  1  0.50000000  0.64906335  0.63967720  1
  C  C16  1  0.50000000  0.64946612  0.97046601  1
  C  C17  1  0.50000000  0.70958860  0.63976840  1
  C  C18  1  0.50000000  0.71023679  0.96790481  1
  C  C19  1  0.50000000  0.28794067  0.69492551  1
  C  C20  1  0.50000000  0.34821690  0.69538840  1
  C  C21  1  0.50000000  0.40842593  0.69610940  1
  C  C22  1  0.50000000  0.46900041  0.69552951  1
  C  C23  1  0.50000000  0.53063459  0.02922190  1
  C  C24  1  0.50000000  0.53400201  0.35934530  1
  C  C25  1  0.50000000  0.52913037  0.69472832  1
  C  C26  1  0.50000000  0.59075492  0.02693601  1
  C  C27  1  0.50000000  0.59339102  0.36149956  1
  C  C28  1  0.50000000  0.58897959  0.69456876  1
  C  C29  1  0.50000000  0.64948132  0.02428133  1
  C  C30  1  0.50000000  0.65210013  0.36160466  1
  C  C31  1  0.50000000  0.64894888  0.69474335  1
  C  C32  1  0.50000000  0.70919518  0.69542090  1
  C  C33  1  0.50000000  0.25886712  0.72333168  1
  C  C34  1  0.50000000  0.31793181  0.72245279  1
  C  C35  1  0.50000000  0.37811381  0.72263983  1
  C  C36  1  0.50000000  0.43882531  0.72264098  1
  C  C37  1  0.50000000  0.50319377  0.06217980  1
  C  C38  1  0.50000000  0.50445902  0.38568296  1
  C  C39  1  0.50000000  0.49917645  0.72251941  1
  C  C40  1  0.50000000  0.56125928  0.05577445  1
  C  C41  1  0.50000000  0.56285322  0.38872078  1
  C  C42  1  0.50000000  0.55901707  0.72234470  1
  C  C43  1  0.50000000  0.62124633  0.05376541  1
  C  C44  1  0.50000000  0.62272988  0.38992355  1
  C  C45  1  0.50000000  0.61898797  0.72221965  1
  C  C46  1  0.50000000  0.67912322  0.72246657  1
  C  C47  1  0.50000000  0.73837950  0.72352279  1
  C  C48  1  0.50000000  0.25886109  0.77643852  1
  C  C49  1  0.50000000  0.31793745  0.77740399  1
  C  C50  1  0.50000000  0.37811946  0.77732817  1
  C  C51  1  0.50000000  0.43882029  0.77735132  1
  C  C52  1  0.50000000  0.50448271  0.11452473  1
  C  C53  1  0.50000000  0.50327456  0.43802680  1
  C  C54  1  0.50000000  0.49917703  0.77748942  1
  C  C55  1  0.50000000  0.56284885  0.11136956  1
  C  C56  1  0.50000000  0.56132032  0.44429238  1
  C  C57  1  0.50000000  0.55902692  0.77765584  1
  C  C58  1  0.50000000  0.62272321  0.11015376  1
  C  C59  1  0.50000000  0.62128730  0.44628959  1
  C  C60  1  0.50000000  0.61899952  0.77772298  1
  C  C61  1  0.50000000  0.67912646  0.77750343  1
  C  C62  1  0.50000000  0.73840401  0.77638540  1
  C  C63  1  0.50000000  0.28793493  0.80486171  1
  C  C64  1  0.50000000  0.34821484  0.80453921  1
  C  C65  1  0.50000000  0.40842257  0.80389601  1
  C  C66  1  0.50000000  0.46900117  0.80446633  1
  C  C67  1  0.50000000  0.53402529  0.14079883  1
  C  C68  1  0.50000000  0.53072355  0.47086336  1
  C  C69  1  0.50000000  0.52913767  0.80528150  1
  C  C70  1  0.50000000  0.59338492  0.13858223  1
  C  C71  1  0.50000000  0.59080442  0.47311878  1
  C  C72  1  0.50000000  0.58899413  0.80542602  1
  C  C73  1  0.50000000  0.65209679  0.13848732  1
  C  C74  1  0.50000000  0.64951625  0.47576075  1
  C  C75  1  0.50000000  0.64894794  0.80521908  1
  C  C76  1  0.50000000  0.70921217  0.80452353  1
  C  C77  1  0.50000000  0.28902031  0.52996650  1
  C  C78  1  0.50000000  0.28795823  0.86077295  1
  C  C79  1  0.50000000  0.34895775  0.53169582  1
  C  C80  1  0.50000000  0.34829812  0.85940919  1
  C  C81  1  0.50000000  0.40874215  0.53350721  1
  C  C82  1  0.50000000  0.40827901  0.85826369  1
  C  C83  1  0.50000000  0.46760540  0.53472877  1
  C  C84  1  0.50000000  0.46896395  0.85935136  1
  C  C85  1  0.50000000  0.53429205  0.19598859  1
  C  C86  1  0.50000000  0.52908516  0.52716457  1
  C  C87  1  0.50000000  0.52907071  0.86065222  1
  C  C88  1  0.50000000  0.59405190  0.19410611  1
  C  C89  1  0.50000000  0.58963263  0.52821514  1
  C  C90  1  0.50000000  0.58892782  0.86079490  1
  C  C91  1  0.50000000  0.65276447  0.19187614  1
  C  C92  1  0.50000000  0.64946984  0.52953686  1
  C  C93  1  0.50000000  0.64905892  0.86029701  1
  C  C94  1  0.50000000  0.71026133  0.53213109  1
  C  C95  1  0.50000000  0.70959251  0.86017815  1
  C  C96  1  0.50000000  0.25967310  0.55615773  1
  C  C97  1  0.50000000  0.25906795  0.88967364  1
  C  C98  1  0.50000000  0.31887056  0.55735584  1
  C  C99  1  0.50000000  0.31832250  0.88723641  1
  C  C100  1  0.50000000  0.37855613  0.55867155  1
  C  C101  1  0.50000000  0.37836311  0.88595565  1
  C  C102  1  0.50000000  0.43804942  0.56106184  1
  C  C103  1  0.50000000  0.43843952  0.88464151  1
  C  C104  1  0.50000000  0.50491045  0.22378913  1
  C  C105  1  0.50000000  0.49856853  0.55656254  1
  C  C106  1  0.50000000  0.49901352  0.88774031  1
  C  C107  1  0.50000000  0.56420416  0.22261423  1
  C  C108  1  0.50000000  0.55882278  0.55530961  1
  C  C109  1  0.50000000  0.55896021  0.88885298  1
  C  C110  1  0.50000000  0.62401964  0.22171310  1
  C  C111  1  0.50000000  0.61933124  0.55668445  1
  C  C112  1  0.50000000  0.61916441  0.88796556  1
  C  C113  1  0.50000000  0.68004812  0.55761275  1
  C  C114  1  0.50000000  0.67951721  0.88762047  1
  C  C115  1  0.50000000  0.73943041  0.55914275  1
  C  C116  1  0.50000000  0.73908409  0.88751223  1
  C  C117  1  0.50000000  0.25907525  0.60998437  1
  C  C118  1  0.50000000  0.25959015  0.94349591  1
  C  C119  1  0.50000000  0.31832138  0.61263320  1
  C  C120  1  0.50000000  0.31882602  0.94249203  1
  C  C121  1  0.50000000  0.37836152  0.61405524  1
  C  C122  1  0.50000000  0.37854160  0.94135578  1
  C  C123  1  0.50000000  0.43843385  0.61539956  1
  C  C124  1  0.50000000  0.43803864  0.93901058  1
  C  C125  1  0.50000000  0.50492922  0.27641539  1
  C  C126  1  0.50000000  0.49900624  0.61225656  1
  C  C127  1  0.50000000  0.49856818  0.94342966  1
  C  C128  1  0.50000000  0.56421525  0.27749925  1
  C  C129  1  0.50000000  0.55896530  0.61118427  1
  C  C130  1  0.50000000  0.55880595  0.94476195  1
  C  C131  1  0.50000000  0.62402857  0.27835195  1
  C  C132  1  0.50000000  0.61917275  0.61204396  1
  C  C133  1  0.50000000  0.61931640  0.94333825  1
  C  C134  1  0.50000000  0.67951694  0.61235551  1
  C  C135  1  0.50000000  0.68004326  0.94236393  1
  C  C136  1  0.50000000  0.73909737  0.61248954  1
  C  C137  1  0.50000000  0.73938451  0.94082758  1
  H  H138  1  0.50000000  0.23548421  0.70345096  1
  H  H139  1  0.50000000  0.76172799  0.70360753  1
  H  H140  1  0.50000000  0.23545284  0.79626182  1
  H  H141  1  0.50000000  0.76183456  0.79608972  1
  H  H142  1  0.50000000  0.23663734  0.53496239  1
  H  H143  1  0.50000000  0.23550758  0.87024340  1
  H  H144  1  0.50000000  0.76262207  0.53838745  1
  H  H145  1  0.50000000  0.76237567  0.86728849  1
  H  H146  1  0.50000000  0.23539743  0.62906813  1
  H  H147  1  0.50000000  0.23655196  0.96468622  1
  H  H148  1  0.50000000  0.76231137  0.63290048  1
  H  H149  1  0.50000000  0.76262759  0.96140610  1
  H  H150  1  0.50000000  0.28955940  0.01174678  1
  H  H151  1  0.50000000  0.34917514  0.01029069  1
  H  H152  1  0.50000000  0.40939425  0.00867974  1
  H  H153  1  0.50000000  0.46332806  0.00558159  1
  H  H154  1  0.50000000  0.67660944  0.28953381  1
  H  H155  1  0.50000000  0.71137910  0.00976055  1
  H  H156  1  0.50000000  0.67278237  0.04410193  1
  H  H157  1  0.50000000  0.67550829  0.38158338  1
  H  H158  1  0.50000000  0.47862614  0.04900628  1
  H  H159  1  0.50000000  0.48125355  0.36539251  1
  H  H160  1  0.50000000  0.48135777  0.13503547  1
  H  H161  1  0.50000000  0.47879819  0.45153014  1
  H  H162  1  0.50000000  0.67550673  0.11853233  1
  H  H163  1  0.50000000  0.67288282  0.45616246  1
  H  H164  1  0.50000000  0.28973909  0.48792117  1
  H  H165  1  0.50000000  0.34928681  0.48961386  1
  H  H166  1  0.50000000  0.40940371  0.49147118  1
  H  H167  1  0.50000000  0.46319196  0.49445299  1
  H  H168  1  0.50000000  0.67656550  0.21074441  1
  H  H169  1  0.50000000  0.71147565  0.49029159  1
  H  H170  1  0.50000000  0.48150722  0.20415663  1
  H  H171  1  0.50000000  0.48158752  0.29624568  1
