# generated using pymatgen
data_H4C15
_symmetry_space_group_name_H-M   'P 1'
_cell_length_a   20.00000000
_cell_length_b   37.22700000
_cell_length_c   26.08360773
_cell_angle_alpha   90.00000000
_cell_angle_beta   90.00000000
_cell_angle_gamma   90.00000000
_symmetry_Int_Tables_number   1
_chemical_formula_structural   H4C15
_chemical_formula_sum   'H32 C120'
_cell_volume   19420.28929805
_cell_formula_units_Z   8
loop_
 _symmetry_equiv_pos_site_id
 _symmetry_equiv_pos_as_xyz
  1  'x, y, z'
loop_
 _atom_site_type_symbol
 _atom_site_label
 _atom_site_symmetry_multiplicity
 _atom_site_fract_x
 _atom_site_fract_y
 _atom_site_fract_z
 _atom_site_occupancy
  C  C0  1  0.50000000  0.31358307  0.22176980  1
  C  C1  1  0.50000000  0.31845047  0.55631149  1
  C  C2  1  0.50000000  0.31886427  0.88801015  1
  C  C3  1  0.50000000  0.37962304  0.22263594  1
  C  C4  1  0.50000000  0.38529546  0.55512858  1
  C  C5  1  0.50000000  0.38532805  0.88919664  1
  C  C6  1  0.50000000  0.44518769  0.22383581  1
  C  C7  1  0.50000000  0.45183962  0.55658660  1
  C  C8  1  0.50000000  0.45140152  0.88772925  1
  C  C9  1  0.50000000  0.51868783  0.56109448  1
  C  C10  1  0.50000000  0.51827198  0.88454305  1
  C  C11  1  0.50000000  0.58441210  0.55877025  1
  C  C12  1  0.50000000  0.58463590  0.88583404  1
  C  C13  1  0.50000000  0.65035773  0.55741046  1
  C  C14  1  0.50000000  0.65096957  0.88714988  1
  C  C15  1  0.50000000  0.71573009  0.55634595  1
  C  C16  1  0.50000000  0.71642976  0.88955880  1
  C  C17  1  0.50000000  0.31355858  0.27828026  1
  C  C18  1  0.50000000  0.31879947  0.61204554  1
  C  C19  1  0.50000000  0.31855672  0.94374887  1
  C  C20  1  0.50000000  0.37960391  0.27747827  1
  C  C21  1  0.50000000  0.38529079  0.61085998  1
  C  C22  1  0.50000000  0.38537170  0.94493674  1
  C  C23  1  0.50000000  0.44516717  0.27640514  1
  C  C24  1  0.50000000  0.45141931  0.61224462  1
  C  C25  1  0.50000000  0.45185003  0.94338435  1
  C  C26  1  0.50000000  0.51829562  0.61543278  1
  C  C27  1  0.50000000  0.51867067  0.93892730  1
  C  C28  1  0.50000000  0.58465051  0.61413385  1
  C  C29  1  0.50000000  0.58439331  0.94121194  1
  C  C30  1  0.50000000  0.65098976  0.61267356  1
  C  C31  1  0.50000000  0.65036418  0.94238858  1
  C  C32  1  0.50000000  0.71643684  0.61010668  1
  C  C33  1  0.50000000  0.71578605  0.94333078  1
  C  C34  1  0.50000000  0.28173587  0.30807259  1
  C  C35  1  0.50000000  0.28671132  0.64095977  1
  C  C36  1  0.50000000  0.28585435  0.97128907  1
  C  C37  1  0.50000000  0.34662148  0.30594830  1
  C  C38  1  0.50000000  0.35213839  0.63900943  1
  C  C39  1  0.50000000  0.35128587  0.97205185  1
  C  C40  1  0.50000000  0.41265833  0.30416273  1
  C  C41  1  0.50000000  0.41826642  0.63913149  1
  C  C42  1  0.50000000  0.41833143  0.97301350  1
  C  C43  1  0.50000000  0.48465809  0.64067708  1
  C  C44  1  0.50000000  0.48604305  0.96522854  1
  C  C45  1  0.50000000  0.55159060  0.64179953  1
  C  C46  1  0.50000000  0.55103715  0.96645652  1
  C  C47  1  0.50000000  0.61786609  0.64058766  1
  C  C48  1  0.50000000  0.61709068  0.96807768  1
  C  C49  1  0.50000000  0.68454341  0.63908870  1
  C  C50  1  0.50000000  0.68338598  0.96956423  1
  C  C51  1  0.50000000  0.28463739  0.02424821  1
  C  C52  1  0.50000000  0.28235393  0.36134815  1
  C  C53  1  0.50000000  0.28686053  0.69391571  1
  C  C54  1  0.50000000  0.34983136  0.02734776  1
  C  C55  1  0.50000000  0.34730039  0.36142890  1
  C  C56  1  0.50000000  0.35219241  0.69442290  1
  C  C57  1  0.50000000  0.41656212  0.02934988  1
  C  C58  1  0.50000000  0.41292084  0.35922137  1
  C  C59  1  0.50000000  0.41825882  0.69465858  1
  C  C60  1  0.50000000  0.48462624  0.69550902  1
  C  C61  1  0.50000000  0.55148049  0.69610332  1
  C  C62  1  0.50000000  0.61797191  0.69542037  1
  C  C63  1  0.50000000  0.68458468  0.69497148  1
  C  C64  1  0.50000000  0.31622228  0.05416020  1
  C  C65  1  0.50000000  0.31478887  0.38981015  1
  C  C66  1  0.50000000  0.31924913  0.72213790  1
  C  C67  1  0.50000000  0.38267579  0.05598121  1
  C  C68  1  0.50000000  0.38096418  0.38864765  1
  C  C69  1  0.50000000  0.38538184  0.72234387  1
  C  C70  1  0.50000000  0.44688318  0.06226174  1
  C  C71  1  0.50000000  0.44549769  0.38557968  1
  C  C72  1  0.50000000  0.45128937  0.72250923  1
  C  C73  1  0.50000000  0.51789346  0.72263233  1
  C  C74  1  0.50000000  0.58495425  0.72262750  1
  C  C75  1  0.50000000  0.65145799  0.72246725  1
  C  C76  1  0.50000000  0.71673377  0.72332869  1
  C  C77  1  0.50000000  0.31482675  0.11024102  1
  C  C78  1  0.50000000  0.31613529  0.44588116  1
  C  C79  1  0.50000000  0.31924391  0.77795402  1
  C  C80  1  0.50000000  0.38101428  0.11144014  1
  C  C81  1  0.50000000  0.38256952  0.44409047  1
  C  C82  1  0.50000000  0.38538075  0.77763592  1
  C  C83  1  0.50000000  0.44552088  0.11462736  1
  C  C84  1  0.50000000  0.44676964  0.43793368  1
  C  C85  1  0.50000000  0.45128778  0.77743134  1
  C  C86  1  0.50000000  0.51788714  0.77733441  1
  C  C87  1  0.50000000  0.58494506  0.77729169  1
  C  C88  1  0.50000000  0.65144649  0.77738353  1
  C  C89  1  0.50000000  0.71672980  0.77641909  1
  C  C90  1  0.50000000  0.28238161  0.13870536  1
  C  C91  1  0.50000000  0.28454068  0.47575879  1
  C  C92  1  0.50000000  0.28685441  0.80620971  1
  C  C93  1  0.50000000  0.34733697  0.13863793  1
  C  C94  1  0.50000000  0.34973081  0.47271838  1
  C  C95  1  0.50000000  0.35220427  0.80561176  1
  C  C96  1  0.50000000  0.41294037  0.14093381  1
  C  C97  1  0.50000000  0.41642290  0.47075308  1
  C  C98  1  0.50000000  0.41826127  0.80530367  1
  C  C99  1  0.50000000  0.48461687  0.80445152  1
  C  C100  1  0.50000000  0.55147919  0.80385391  1
  C  C101  1  0.50000000  0.61796038  0.80448051  1
  C  C102  1  0.50000000  0.68458058  0.80481384  1
  C  C103  1  0.50000000  0.28177024  0.19197909  1
  C  C104  1  0.50000000  0.28574941  0.52871500  1
  C  C105  1  0.50000000  0.28674682  0.85917621  1
  C  C106  1  0.50000000  0.34665344  0.19412267  1
  C  C107  1  0.50000000  0.35119561  0.52802419  1
  C  C108  1  0.50000000  0.35218062  0.86103186  1
  C  C109  1  0.50000000  0.41269372  0.19600555  1
  C  C110  1  0.50000000  0.41824165  0.52704837  1
  C  C111  1  0.50000000  0.41826920  0.86084540  1
  C  C112  1  0.50000000  0.48607067  0.53476884  1
  C  C113  1  0.50000000  0.48461854  0.85929046  1
  C  C114  1  0.50000000  0.55105649  0.53358815  1
  C  C115  1  0.50000000  0.55159624  0.85816445  1
  C  C116  1  0.50000000  0.61707031  0.53180286  1
  C  C117  1  0.50000000  0.61783809  0.85932177  1
  C  C118  1  0.50000000  0.68334010  0.53011177  1
  C  C119  1  0.50000000  0.68450387  0.86068984  1
  H  H120  1  0.50000000  0.74110505  0.53507186  1
  H  H121  1  0.50000000  0.74246844  0.87013657  1
  H  H122  1  0.50000000  0.74260728  0.62915677  1
  H  H123  1  0.50000000  0.74114224  0.96468927  1
  H  H124  1  0.50000000  0.25550323  0.28915861  1
  H  H125  1  0.50000000  0.26064599  0.62170981  1
  H  H126  1  0.50000000  0.26039491  0.95045402  1
  H  H127  1  0.50000000  0.25828594  0.04277934  1
  H  H128  1  0.50000000  0.25657124  0.38144494  1
  H  H129  1  0.50000000  0.26098037  0.71371873  1
  H  H130  1  0.50000000  0.74260627  0.70351178  1
  H  H131  1  0.50000000  0.74262549  0.79616772  1
  H  H132  1  0.50000000  0.25657556  0.11867052  1
  H  H133  1  0.50000000  0.25816622  0.45727383  1
  H  H134  1  0.50000000  0.26097293  0.78640040  1
  H  H135  1  0.50000000  0.25556953  0.21098254  1
  H  H136  1  0.50000000  0.26022908  0.54936917  1
  H  H137  1  0.50000000  0.26075348  0.87864438  1
  H  H138  1  0.50000000  0.47110454  0.20432804  1
  H  H139  1  0.50000000  0.47103341  0.29606505  1
  H  H140  1  0.50000000  0.49067610  0.00555355  1
  H  H141  1  0.50000000  0.55019038  0.00851393  1
  H  H142  1  0.50000000  0.61661598  0.01012542  1
  H  H143  1  0.50000000  0.68282070  0.01155288  1
  H  H144  1  0.50000000  0.47410103  0.04930656  1
  H  H145  1  0.50000000  0.47115462  0.36534280  1
  H  H146  1  0.50000000  0.47111663  0.13506156  1
  H  H147  1  0.50000000  0.47387109  0.45127761  1
  H  H148  1  0.50000000  0.49088778  0.49448976  1
  H  H149  1  0.50000000  0.55027430  0.49156699  1
  H  H150  1  0.50000000  0.61657552  0.48974810  1
  H  H151  1  0.50000000  0.68276543  0.48808186  1
