# generated using pymatgen
data_H17C69
_symmetry_space_group_name_H-M   'P 1'
_cell_length_a   10.00000000
_cell_length_b   41.10890000
_cell_length_c   26.05683414
_cell_angle_alpha   90.00000000
_cell_angle_beta   90.00000000
_cell_angle_gamma   90.00000000
_symmetry_Int_Tables_number   1
_chemical_formula_structural   H17C69
_chemical_formula_sum   'H34 C138'
_cell_volume   10711.67789066
_cell_formula_units_Z   2
loop_
 _symmetry_equiv_pos_site_id
 _symmetry_equiv_pos_as_xyz
  1  'x, y, z'
loop_
 _atom_site_type_symbol
 _atom_site_label
 _atom_site_symmetry_multiplicity
 _atom_site_fract_x
 _atom_site_fract_y
 _atom_site_fract_z
 _atom_site_occupancy
  C  C0  1  0.50000000  0.28777858  0.63935115  1
  C  C1  1  0.50000000  0.28881741  0.96932935  1
  C  C2  1  0.50000000  0.34815040  0.64144024  1
  C  C3  1  0.50000000  0.34881477  0.96698084  1
  C  C4  1  0.50000000  0.40888222  0.64072498  1
  C  C5  1  0.50000000  0.40769468  0.96520190  1
  C  C6  1  0.50000000  0.47412269  0.30422313  1
  C  C7  1  0.50000000  0.46902456  0.63943760  1
  C  C8  1  0.50000000  0.46898992  0.97283237  1
  C  C9  1  0.50000000  0.53391225  0.30599609  1
  C  C10  1  0.50000000  0.52899396  0.63920662  1
  C  C11  1  0.50000000  0.52955932  0.97177210  1
  C  C12  1  0.50000000  0.59262127  0.30833875  1
  C  C13  1  0.50000000  0.58927112  0.63984542  1
  C  C14  1  0.50000000  0.58938605  0.97050598  1
  C  C15  1  0.50000000  0.64957796  0.64026091  1
  C  C16  1  0.50000000  0.64975406  0.96777661  1
  C  C17  1  0.50000000  0.71013614  0.63954134  1
  C  C18  1  0.50000000  0.70952925  0.96894506  1
  C  C19  1  0.50000000  0.28786728  0.69510924  1
  C  C20  1  0.50000000  0.34833297  0.69597991  1
  C  C21  1  0.50000000  0.40890073  0.69545098  1
  C  C22  1  0.50000000  0.47042560  0.02909368  1
  C  C23  1  0.50000000  0.47382386  0.35935887  1
  C  C24  1  0.50000000  0.46905458  0.69478877  1
  C  C25  1  0.50000000  0.53059070  0.02694376  1
  C  C26  1  0.50000000  0.53321527  0.36154149  1
  C  C27  1  0.50000000  0.52908671  0.69470341  1
  C  C28  1  0.50000000  0.58936836  0.02423103  1
  C  C29  1  0.50000000  0.59194923  0.36171891  1
  C  C30  1  0.50000000  0.58925532  0.69489583  1
  C  C31  1  0.50000000  0.64944905  0.69524953  1
  C  C32  1  0.50000000  0.70992394  0.69524479  1
  C  C33  1  0.50000000  0.25873964  0.72339967  1
  C  C34  1  0.50000000  0.31788687  0.72259412  1
  C  C35  1  0.50000000  0.37859100  0.72255663  1
  C  C36  1  0.50000000  0.44298847  0.06215327  1
  C  C37  1  0.50000000  0.44429735  0.38576115  1
  C  C38  1  0.50000000  0.43910591  0.72248118  1
  C  C39  1  0.50000000  0.50105521  0.05574326  1
  C  C40  1  0.50000000  0.50267857  0.38878314  1
  C  C41  1  0.50000000  0.49908727  0.72239609  1
  C  C42  1  0.50000000  0.56108075  0.05373993  1
  C  C43  1  0.50000000  0.56255686  0.39007644  1
  C  C44  1  0.50000000  0.55908917  0.72238182  1
  C  C45  1  0.50000000  0.61942266  0.72238565  1
  C  C46  1  0.50000000  0.67980127  0.72246373  1
  C  C47  1  0.50000000  0.73910095  0.72337534  1
  C  C48  1  0.50000000  0.25874763  0.77642705  1
  C  C49  1  0.50000000  0.31789779  0.77728229  1
  C  C50  1  0.50000000  0.37860031  0.77744542  1
  C  C51  1  0.50000000  0.44431055  0.11449956  1
  C  C52  1  0.50000000  0.44304912  0.43809189  1
  C  C53  1  0.50000000  0.43910523  0.77757143  1
  C  C54  1  0.50000000  0.50267670  0.11133230  1
  C  C55  1  0.50000000  0.50111034  0.44436629  1
  C  C56  1  0.50000000  0.49910364  0.77766856  1
  C  C57  1  0.50000000  0.56258244  0.11006948  1
  C  C58  1  0.50000000  0.56111254  0.44641519  1
  C  C59  1  0.50000000  0.55909106  0.77764639  1
  C  C60  1  0.50000000  0.61942952  0.77759947  1
  C  C61  1  0.50000000  0.67980729  0.77744822  1
  C  C62  1  0.50000000  0.73910439  0.77635028  1
  C  C63  1  0.50000000  0.28787691  0.80472165  1
  C  C64  1  0.50000000  0.34832722  0.80397771  1
  C  C65  1  0.50000000  0.40890409  0.80457680  1
  C  C66  1  0.50000000  0.47384896  0.14082854  1
  C  C67  1  0.50000000  0.47050360  0.47102823  1
  C  C68  1  0.50000000  0.46907580  0.80527880  1
  C  C69  1  0.50000000  0.53322661  0.13854588  1
  C  C70  1  0.50000000  0.53062623  0.47319236  1
  C  C71  1  0.50000000  0.52910611  0.80535636  1
  C  C72  1  0.50000000  0.59198042  0.13843672  1
  C  C73  1  0.50000000  0.58938414  0.47592758  1
  C  C74  1  0.50000000  0.58926436  0.80512380  1
  C  C75  1  0.50000000  0.64945319  0.80468929  1
  C  C76  1  0.50000000  0.70994536  0.80453053  1
  C  C77  1  0.50000000  0.28892712  0.53039134  1
  C  C78  1  0.50000000  0.28782523  0.86047732  1
  C  C79  1  0.50000000  0.34887466  0.53308474  1
  C  C80  1  0.50000000  0.34816086  0.85852556  1
  C  C81  1  0.50000000  0.40770097  0.53484460  1
  C  C82  1  0.50000000  0.40888020  0.85931499  1
  C  C83  1  0.50000000  0.47410634  0.19597248  1
  C  C84  1  0.50000000  0.46900756  0.52726523  1
  C  C85  1  0.50000000  0.46903193  0.86063752  1
  C  C86  1  0.50000000  0.53390266  0.19409724  1
  C  C87  1  0.50000000  0.52956187  0.52833450  1
  C  C88  1  0.50000000  0.52899763  0.86087484  1
  C  C89  1  0.50000000  0.59263021  0.19181839  1
  C  C90  1  0.50000000  0.58937098  0.52961545  1
  C  C91  1  0.50000000  0.58926759  0.86019445  1
  C  C92  1  0.50000000  0.64969741  0.53218649  1
  C  C93  1  0.50000000  0.64956448  0.85967300  1
  C  C94  1  0.50000000  0.70946432  0.53075330  1
  C  C95  1  0.50000000  0.71012456  0.86019718  1
  C  C96  1  0.50000000  0.25953837  0.55646413  1
  C  C97  1  0.50000000  0.25892442  0.88937049  1
  C  C98  1  0.50000000  0.31866038  0.55808300  1
  C  C99  1  0.50000000  0.31824148  0.88662819  1
  C  C100  1  0.50000000  0.37804875  0.56093240  1
  C  C101  1  0.50000000  0.37825108  0.88474333  1
  C  C102  1  0.50000000  0.44470951  0.22381335  1
  C  C103  1  0.50000000  0.43858589  0.55678646  1
  C  C104  1  0.50000000  0.43898155  0.88756279  1
  C  C105  1  0.50000000  0.50404023  0.22261985  1
  C  C106  1  0.50000000  0.49880612  0.55540807  1
  C  C107  1  0.50000000  0.49896514  0.88889210  1
  C  C108  1  0.50000000  0.56388867  0.22174044  1
  C  C109  1  0.50000000  0.55927605  0.55685738  1
  C  C110  1  0.50000000  0.55916467  0.88794369  1
  C  C111  1  0.50000000  0.62001864  0.55765654  1
  C  C112  1  0.50000000  0.61958582  0.88720568  1
  C  C113  1  0.50000000  0.67973291  0.55817545  1
  C  C114  1  0.50000000  0.67981013  0.88674313  1
  C  C115  1  0.50000000  0.73877956  0.55706140  1
  C  C116  1  0.50000000  0.73911208  0.88885744  1
  C  C117  1  0.50000000  0.25892684  0.61029486  1
  C  C118  1  0.50000000  0.25944814  0.94319729  1
  C  C119  1  0.50000000  0.31822999  0.61329294  1
  C  C120  1  0.50000000  0.31862144  0.94183319  1
  C  C121  1  0.50000000  0.37825921  0.61529728  1
  C  C122  1  0.50000000  0.37801790  0.93914778  1
  C  C123  1  0.50000000  0.44472451  0.27644381  1
  C  C124  1  0.50000000  0.43897755  0.61249328  1
  C  C125  1  0.50000000  0.43857570  0.94326757  1
  C  C126  1  0.50000000  0.50404250  0.27751462  1
  C  C127  1  0.50000000  0.49897190  0.61121459  1
  C  C128  1  0.50000000  0.49880064  0.94470129  1
  C  C129  1  0.50000000  0.56389645  0.27835256  1
  C  C130  1  0.50000000  0.55915904  0.61213472  1
  C  C131  1  0.50000000  0.55929120  0.94323500  1
  C  C132  1  0.50000000  0.61958315  0.61281566  1
  C  C133  1  0.50000000  0.62003786  0.94239352  1
  C  C134  1  0.50000000  0.67980070  0.61307736  1
  C  C135  1  0.50000000  0.67976434  0.94164006  1
  C  C136  1  0.50000000  0.73910351  0.61082062  1
  C  C137  1  0.50000000  0.73883321  0.94262808  1
  H  H138  1  0.50000000  0.23535646  0.70349728  1
  H  H139  1  0.50000000  0.76250399  0.70350518  1
  H  H140  1  0.50000000  0.23534967  0.79629340  1
  H  H141  1  0.50000000  0.76252338  0.79615676  1
  H  H142  1  0.50000000  0.23653010  0.53520028  1
  H  H143  1  0.50000000  0.23536944  0.86992031  1
  H  H144  1  0.50000000  0.76186750  0.53608348  1
  H  H145  1  0.50000000  0.76263813  0.86929802  1
  H  H146  1  0.50000000  0.23526009  0.62940675  1
  H  H147  1  0.50000000  0.23644024  0.96445869  1
  H  H148  1  0.50000000  0.76268493  0.63020500  1
  H  H149  1  0.50000000  0.76188286  0.96376831  1
  H  H150  1  0.50000000  0.28954185  0.01137328  1
  H  H151  1  0.50000000  0.34961942  0.00910794  1
  H  H152  1  0.50000000  0.40345680  0.00552424  1
  H  H153  1  0.50000000  0.61645426  0.28960589  1
  H  H154  1  0.50000000  0.65099296  0.00967382  1
  H  H155  1  0.50000000  0.70902269  0.01099123  1
  H  H156  1  0.50000000  0.61264981  0.04419310  1
  H  H157  1  0.50000000  0.61537547  0.38169379  1
  H  H158  1  0.50000000  0.41834926  0.04924451  1
  H  H159  1  0.50000000  0.42110606  0.36544618  1
  H  H160  1  0.50000000  0.42119603  0.13506403  1
  H  H161  1  0.50000000  0.41848394  0.45129763  1
  H  H162  1  0.50000000  0.61539734  0.11845552  1
  H  H163  1  0.50000000  0.61273017  0.45619915  1
  H  H164  1  0.50000000  0.28974492  0.48831238  1
  H  H165  1  0.50000000  0.34974253  0.49101010  1
  H  H166  1  0.50000000  0.40332722  0.49453413  1
  H  H167  1  0.50000000  0.61641061  0.21072921  1
  H  H168  1  0.50000000  0.65089886  0.49031886  1
  H  H169  1  0.50000000  0.70890085  0.48866907  1
  H  H170  1  0.50000000  0.42132055  0.20412753  1
  H  H171  1  0.50000000  0.42138423  0.29627999  1
