# generated using pymatgen
data_H11C30
_symmetry_space_group_name_H-M   'P 1'
_cell_length_a   20.00000000
_cell_length_b   37.22700000
_cell_length_c   26.20894551
_cell_angle_alpha   90.00000000
_cell_angle_beta   90.00000000
_cell_angle_gamma   90.00000000
_symmetry_Int_Tables_number   1
_chemical_formula_structural   H11C30
_chemical_formula_sum   'H44 C120'
_cell_volume   19513.60828867
_cell_formula_units_Z   4
loop_
 _symmetry_equiv_pos_site_id
 _symmetry_equiv_pos_as_xyz
  1  'x, y, z'
loop_
 _atom_site_type_symbol
 _atom_site_label
 _atom_site_symmetry_multiplicity
 _atom_site_fract_x
 _atom_site_fract_y
 _atom_site_fract_z
 _atom_site_occupancy
  C  C0  1  0.50000000  0.31869792  0.22165791  1
  C  C1  1  0.50000000  0.31457036  0.55629074  1
  C  C2  1  0.50000000  0.31427615  0.88797334  1
  C  C3  1  0.50000000  0.38147446  0.55796359  1
  C  C4  1  0.50000000  0.38076559  0.88716652  1
  C  C5  1  0.50000000  0.44749624  0.55961744  1
  C  C6  1  0.50000000  0.44707505  0.88572732  1
  C  C7  1  0.50000000  0.51342429  0.55945919  1
  C  C8  1  0.50000000  0.51334328  0.88547843  1
  C  C9  1  0.50000000  0.57938862  0.56023403  1
  C  C10  1  0.50000000  0.57966430  0.88518283  1
  C  C11  1  0.50000000  0.66710566  0.22358166  1
  C  C12  1  0.50000000  0.64627627  0.55641848  1
  C  C13  1  0.50000000  0.64640811  0.88774056  1
  C  C14  1  0.50000000  0.73136694  0.22333094  1
  C  C15  1  0.50000000  0.71150227  0.55846642  1
  C  C16  1  0.50000000  0.71142325  0.88850474  1
  C  C17  1  0.50000000  0.31872155  0.27845114  1
  C  C18  1  0.50000000  0.31431249  0.61213677  1
  C  C19  1  0.50000000  0.31458911  0.94380285  1
  C  C20  1  0.50000000  0.38078426  0.61292541  1
  C  C21  1  0.50000000  0.38147465  0.94213556  1
  C  C22  1  0.50000000  0.44708966  0.61438353  1
  C  C23  1  0.50000000  0.44748503  0.94050249  1
  C  C24  1  0.50000000  0.51335626  0.61458153  1
  C  C25  1  0.50000000  0.51341030  0.94060851  1
  C  C26  1  0.50000000  0.57966568  0.61482257  1
  C  C27  1  0.50000000  0.57936106  0.93978593  1
  C  C28  1  0.50000000  0.66698769  0.27614453  1
  C  C29  1  0.50000000  0.64640599  0.61219886  1
  C  C30  1  0.50000000  0.64628824  0.94350287  1
  C  C31  1  0.50000000  0.73125858  0.27683128  1
  C  C32  1  0.50000000  0.71140920  0.61138504  1
  C  C33  1  0.50000000  0.71150269  0.94141345  1
  C  C34  1  0.50000000  0.28639887  0.30658727  1
  C  C35  1  0.50000000  0.28212679  0.64038748  1
  C  C36  1  0.50000000  0.28280025  0.97347841  1
  C  C37  1  0.50000000  0.35052190  0.30786633  1
  C  C38  1  0.50000000  0.34732650  0.63992765  1
  C  C39  1  0.50000000  0.34773167  0.97075807  1
  C  C40  1  0.50000000  0.41373484  0.64075288  1
  C  C41  1  0.50000000  0.41446952  0.96697251  1
  C  C42  1  0.50000000  0.48029263  0.64143910  1
  C  C43  1  0.50000000  0.48041761  0.96673342  1
  C  C44  1  0.50000000  0.54651492  0.64171656  1
  C  C45  1  0.50000000  0.54656040  0.96640995  1
  C  C46  1  0.50000000  0.61313931  0.64042101  1
  C  C47  1  0.50000000  0.61211457  0.96628188  1
  C  C48  1  0.50000000  0.69893837  0.30498870  1
  C  C49  1  0.50000000  0.67927930  0.63970951  1
  C  C50  1  0.50000000  0.68026649  0.97158910  1
  C  C51  1  0.50000000  0.28339395  0.02643707  1
  C  C52  1  0.50000000  0.28583360  0.35977553  1
  C  C53  1  0.50000000  0.28189247  0.69335369  1
  C  C54  1  0.50000000  0.34754680  0.02463176  1
  C  C55  1  0.50000000  0.34995341  0.36117647  1
  C  C56  1  0.50000000  0.34712492  0.69492850  1
  C  C57  1  0.50000000  0.41351618  0.69562884  1
  C  C58  1  0.50000000  0.48015679  0.69594128  1
  C  C59  1  0.50000000  0.54662194  0.69601538  1
  C  C60  1  0.50000000  0.61311130  0.69524347  1
  C  C61  1  0.50000000  0.68524595  0.02797463  1
  C  C62  1  0.50000000  0.69618129  0.36110305  1
  C  C63  1  0.50000000  0.67936115  0.69520894  1
  C  C64  1  0.50000000  0.31619770  0.05404783  1
  C  C65  1  0.50000000  0.31752373  0.38923158  1
  C  C66  1  0.50000000  0.31394097  0.72215166  1
  C  C67  1  0.50000000  0.38038855  0.72267253  1
  C  C68  1  0.50000000  0.44676294  0.72281050  1
  C  C69  1  0.50000000  0.51329153  0.72284991  1
  C  C70  1  0.50000000  0.58006411  0.72262824  1
  C  C71  1  0.50000000  0.65703329  0.06392820  1
  C  C72  1  0.50000000  0.66204486  0.38379533  1
  C  C73  1  0.50000000  0.64633630  0.72261279  1
  C  C74  1  0.50000000  0.71993509  0.05112388  1
  C  C75  1  0.50000000  0.72518546  0.39579150  1
  C  C76  1  0.50000000  0.71154143  0.72356726  1
  C  C77  1  0.50000000  0.31743558  0.11085398  1
  C  C78  1  0.50000000  0.31624838  0.44603045  1
  C  C79  1  0.50000000  0.31395674  0.77789071  1
  C  C80  1  0.50000000  0.38039834  0.77739403  1
  C  C81  1  0.50000000  0.44675305  0.77725799  1
  C  C82  1  0.50000000  0.51328158  0.77721479  1
  C  C83  1  0.50000000  0.58005463  0.77741563  1
  C  C84  1  0.50000000  0.66224936  0.11609239  1
  C  C85  1  0.50000000  0.65690557  0.43597542  1
  C  C86  1  0.50000000  0.64632463  0.77734332  1
  C  C87  1  0.50000000  0.72537510  0.10391006  1
  C  C88  1  0.50000000  0.71986878  0.44860412  1
  C  C89  1  0.50000000  0.71151650  0.77636803  1
  C  C90  1  0.50000000  0.28576654  0.14035055  1
  C  C91  1  0.50000000  0.28342553  0.47358531  1
  C  C92  1  0.50000000  0.28190522  0.80669238  1
  C  C93  1  0.50000000  0.34986032  0.13890057  1
  C  C94  1  0.50000000  0.34757039  0.47549280  1
  C  C95  1  0.50000000  0.34714350  0.80511979  1
  C  C96  1  0.50000000  0.41351974  0.80447028  1
  C  C97  1  0.50000000  0.48013769  0.80413194  1
  C  C98  1  0.50000000  0.54660889  0.80404260  1
  C  C99  1  0.50000000  0.61310823  0.80474903  1
  C  C100  1  0.50000000  0.69642704  0.13873958  1
  C  C101  1  0.50000000  0.68520062  0.47185534  1
  C  C102  1  0.50000000  0.67934634  0.80473448  1
  C  C103  1  0.50000000  0.28636370  0.19354058  1
  C  C104  1  0.50000000  0.28279062  0.52653783  1
  C  C105  1  0.50000000  0.28209511  0.85965531  1
  C  C106  1  0.50000000  0.35047610  0.19220050  1
  C  C107  1  0.50000000  0.34772691  0.52935917  1
  C  C108  1  0.50000000  0.34730363  0.86013773  1
  C  C109  1  0.50000000  0.41448159  0.53313588  1
  C  C110  1  0.50000000  0.41372266  0.85935083  1
  C  C111  1  0.50000000  0.48041998  0.53335852  1
  C  C112  1  0.50000000  0.48027105  0.85864294  1
  C  C113  1  0.50000000  0.54656923  0.53363838  1
  C  C114  1  0.50000000  0.54650673  0.85832781  1
  C  C115  1  0.50000000  0.61211031  0.53370538  1
  C  C116  1  0.50000000  0.61313239  0.85956001  1
  C  C117  1  0.50000000  0.69914336  0.19490620  1
  C  C118  1  0.50000000  0.68026444  0.52826800  1
  C  C119  1  0.50000000  0.67927238  0.86022257  1
  H  H120  1  0.50000000  0.75737624  0.20377343  1
  H  H121  1  0.50000000  0.73782397  0.54008737  1
  H  H122  1  0.50000000  0.73738339  0.86906870  1
  H  H123  1  0.50000000  0.75713096  0.29679228  1
  H  H124  1  0.50000000  0.73737433  0.63080020  1
  H  H125  1  0.50000000  0.73780913  0.95984227  1
  H  H126  1  0.50000000  0.26056241  0.28670019  1
  H  H127  1  0.50000000  0.25638886  0.62029729  1
  H  H128  1  0.50000000  0.25658018  0.95461457  1
  H  H129  1  0.50000000  0.25760961  0.04647284  1
  H  H130  1  0.50000000  0.25965950  0.37873599  1
  H  H131  1  0.50000000  0.25590196  0.71278432  1
  H  H132  1  0.50000000  0.74418858  0.02760830  1
  H  H133  1  0.50000000  0.75287856  0.38152256  1
  H  H134  1  0.50000000  0.73746632  0.70402907  1
  H  H135  1  0.50000000  0.75311546  0.11799439  1
  H  H136  1  0.50000000  0.74422394  0.47186036  1
  H  H137  1  0.50000000  0.73741186  0.79595590  1
  H  H138  1  0.50000000  0.25956200  0.12148528  1
  H  H139  1  0.50000000  0.25764520  0.45352484  1
  H  H140  1  0.50000000  0.25587741  0.78734959  1
  H  H141  1  0.50000000  0.26052131  0.21341029  1
  H  H142  1  0.50000000  0.25648889  0.54517850  1
  H  H143  1  0.50000000  0.25625540  0.87949687  1
  H  H144  1  0.50000000  0.64093881  0.20488898  1
  H  H145  1  0.50000000  0.64074420  0.29465935  1
  H  H146  1  0.50000000  0.37680220  0.28909429  1
  H  H147  1  0.50000000  0.41585748  0.00866324  1
  H  H148  1  0.50000000  0.48033868  0.00860143  1
  H  H149  1  0.50000000  0.54672258  0.00829447  1
  H  H150  1  0.50000000  0.60878138  0.00707302  1
  H  H151  1  0.50000000  0.37329512  0.04446321  1
  H  H152  1  0.50000000  0.37591727  0.38087329  1
  H  H153  1  0.50000000  0.62909166  0.05317995  1
  H  H154  1  0.50000000  0.63767125  0.36065900  1
  H  H155  1  0.50000000  0.63782904  0.13910324  1
  H  H156  1  0.50000000  0.62898375  0.44681736  1
  H  H157  1  0.50000000  0.37580641  0.11918344  1
  H  H158  1  0.50000000  0.37333074  0.45570278  1
  H  H159  1  0.50000000  0.37678666  0.21088598  1
  H  H160  1  0.50000000  0.41597861  0.49145815  1
  H  H161  1  0.50000000  0.48038994  0.49149682  1
  H  H162  1  0.50000000  0.54676096  0.49175765  1
  H  H163  1  0.50000000  0.60873412  0.49293098  1
