# generated using pymatgen
data_H17C69
_symmetry_space_group_name_H-M   'P 1'
_cell_length_a   10.00000000
_cell_length_b   41.10890000
_cell_length_c   26.03951360
_cell_angle_alpha   90.00000000
_cell_angle_beta   90.00000000
_cell_angle_gamma   90.00000000
_symmetry_Int_Tables_number   1
_chemical_formula_structural   H17C69
_chemical_formula_sum   'H34 C138'
_cell_volume   10704.55760645
_cell_formula_units_Z   2
loop_
 _symmetry_equiv_pos_site_id
 _symmetry_equiv_pos_as_xyz
  1  'x, y, z'
loop_
 _atom_site_type_symbol
 _atom_site_label
 _atom_site_symmetry_multiplicity
 _atom_site_fract_x
 _atom_site_fract_y
 _atom_site_fract_z
 _atom_site_occupancy
  C  C0  1  0.50000000  0.28946198  0.63886024  1
  C  C1  1  0.50000000  0.29060146  0.97038092  1
  C  C2  1  0.50000000  0.34992732  0.64019887  1
  C  C3  1  0.50000000  0.35056124  0.96881887  1
  C  C4  1  0.50000000  0.41007577  0.64068695  1
  C  C5  1  0.50000000  0.41041057  0.96814993  1
  C  C6  1  0.50000000  0.47037974  0.64034152  1
  C  C7  1  0.50000000  0.47016622  0.96792015  1
  C  C8  1  0.50000000  0.52803755  0.30801326  1
  C  C9  1  0.50000000  0.53067648  0.63960028  1
  C  C10  1  0.50000000  0.53069013  0.97077148  1
  C  C11  1  0.50000000  0.58681314  0.30591249  1
  C  C12  1  0.50000000  0.59084622  0.63901142  1
  C  C13  1  0.50000000  0.59069525  0.97182270  1
  C  C14  1  0.50000000  0.64665333  0.30416182  1
  C  C15  1  0.50000000  0.65069622  0.63909448  1
  C  C16  1  0.50000000  0.65153713  0.97278493  1
  C  C17  1  0.50000000  0.71086307  0.64049865  1
  C  C18  1  0.50000000  0.71395666  0.96482205  1
  C  C19  1  0.50000000  0.28939528  0.69488186  1
  C  C20  1  0.50000000  0.34982537  0.69524909  1
  C  C21  1  0.50000000  0.41006595  0.69548241  1
  C  C22  1  0.50000000  0.47043210  0.69538799  1
  C  C23  1  0.50000000  0.53085791  0.02464974  1
  C  C24  1  0.50000000  0.52858603  0.36143295  1
  C  C25  1  0.50000000  0.53068665  0.69483308  1
  C  C26  1  0.50000000  0.58969243  0.02693578  1
  C  C27  1  0.50000000  0.58738318  0.36145016  1
  C  C28  1  0.50000000  0.59067859  0.69441726  1
  C  C29  1  0.50000000  0.64988788  0.02905710  1
  C  C30  1  0.50000000  0.64686268  0.35946371  1
  C  C31  1  0.50000000  0.65033720  0.69448041  1
  C  C32  1  0.50000000  0.71019463  0.69579258  1
  C  C33  1  0.50000000  0.26028846  0.72340643  1
  C  C34  1  0.50000000  0.31945033  0.72244849  1
  C  C35  1  0.50000000  0.37981653  0.72248866  1
  C  C36  1  0.50000000  0.44029851  0.72254409  1
  C  C37  1  0.50000000  0.50061163  0.72249963  1
  C  C38  1  0.50000000  0.55922736  0.05383038  1
  C  C39  1  0.50000000  0.55794475  0.38980265  1
  C  C40  1  0.50000000  0.56067632  0.72227982  1
  C  C41  1  0.50000000  0.61930107  0.05564936  1
  C  C42  1  0.50000000  0.61791281  0.38871981  1
  C  C43  1  0.50000000  0.62057489  0.72220176  1
  C  C44  1  0.50000000  0.67749213  0.06156863  1
  C  C45  1  0.50000000  0.67636459  0.38602956  1
  C  C46  1  0.50000000  0.68022331  0.72250294  1
  C  C47  1  0.50000000  0.73943519  0.72364561  1
  C  C48  1  0.50000000  0.26029505  0.77660511  1
  C  C49  1  0.50000000  0.31944662  0.77759773  1
  C  C50  1  0.50000000  0.37981458  0.77754607  1
  C  C51  1  0.50000000  0.44030155  0.77747153  1
  C  C52  1  0.50000000  0.50061274  0.77750561  1
  C  C53  1  0.50000000  0.55795168  0.11019645  1
  C  C54  1  0.50000000  0.55922586  0.44616846  1
  C  C55  1  0.50000000  0.56067703  0.77771808  1
  C  C56  1  0.50000000  0.61791625  0.11126961  1
  C  C57  1  0.50000000  0.61930484  0.44434082  1
  C  C58  1  0.50000000  0.62057499  0.77779332  1
  C  C59  1  0.50000000  0.67638128  0.11399682  1
  C  C60  1  0.50000000  0.67748544  0.43844301  1
  C  C61  1  0.50000000  0.68022504  0.77748083  1
  C  C62  1  0.50000000  0.73943657  0.77624239  1
  C  C63  1  0.50000000  0.28939181  0.80514583  1
  C  C64  1  0.50000000  0.34982697  0.80478620  1
  C  C65  1  0.50000000  0.41007237  0.80454322  1
  C  C66  1  0.50000000  0.47043376  0.80462101  1
  C  C67  1  0.50000000  0.52860443  0.13858528  1
  C  C68  1  0.50000000  0.53086158  0.47536577  1
  C  C69  1  0.50000000  0.53068688  0.80516416  1
  C  C70  1  0.50000000  0.58738903  0.13854901  1
  C  C71  1  0.50000000  0.58969508  0.47305226  1
  C  C72  1  0.50000000  0.59067827  0.80557959  1
  C  C73  1  0.50000000  0.64686602  0.14052428  1
  C  C74  1  0.50000000  0.64988564  0.47095403  1
  C  C75  1  0.50000000  0.65033855  0.80551157  1
  C  C76  1  0.50000000  0.71020469  0.80416427  1
  C  C77  1  0.50000000  0.29058351  0.52966229  1
  C  C78  1  0.50000000  0.28946343  0.86116890  1
  C  C79  1  0.50000000  0.35055144  0.53113808  1
  C  C80  1  0.50000000  0.34993078  0.85983868  1
  C  C81  1  0.50000000  0.41040109  0.53186988  1
  C  C82  1  0.50000000  0.41008083  0.85933484  1
  C  C83  1  0.50000000  0.47015632  0.53211747  1
  C  C84  1  0.50000000  0.47037944  0.85967228  1
  C  C85  1  0.50000000  0.52805394  0.19198983  1
  C  C86  1  0.50000000  0.53068750  0.52923478  1
  C  C87  1  0.50000000  0.53067736  0.86039942  1
  C  C88  1  0.50000000  0.58681621  0.19408898  1
  C  C89  1  0.50000000  0.59069190  0.52816715  1
  C  C90  1  0.50000000  0.59084815  0.86098455  1
  C  C91  1  0.50000000  0.64665490  0.19583655  1
  C  C92  1  0.50000000  0.65153098  0.52721805  1
  C  C93  1  0.50000000  0.65070092  0.86089694  1
  C  C94  1  0.50000000  0.71394468  0.53516599  1
  C  C95  1  0.50000000  0.71086343  0.85946406  1
  C  C96  1  0.50000000  0.26124838  0.55587283  1
  C  C97  1  0.50000000  0.26061564  0.89025825  1
  C  C98  1  0.50000000  0.32046992  0.55698517  1
  C  C99  1  0.50000000  0.31989802  0.88764189  1
  C  C100  1  0.50000000  0.38028188  0.55781343  1
  C  C101  1  0.50000000  0.38004470  0.88667846  1
  C  C102  1  0.50000000  0.44009895  0.55842363  1
  C  C103  1  0.50000000  0.44024958  0.88637695  1
  C  C104  1  0.50000000  0.49997953  0.55740131  1
  C  C105  1  0.50000000  0.50045977  0.88739022  1
  C  C106  1  0.50000000  0.55685279  0.22169450  1
  C  C107  1  0.50000000  0.56081335  0.55648535  1
  C  C108  1  0.50000000  0.56074438  0.88811742  1
  C  C109  1  0.50000000  0.61672043  0.22253400  1
  C  C110  1  0.50000000  0.62157432  0.55520050  1
  C  C111  1  0.50000000  0.62102018  0.88898417  1
  C  C112  1  0.50000000  0.67607856  0.22363748  1
  C  C113  1  0.50000000  0.68214462  0.55649893  1
  C  C114  1  0.50000000  0.68110508  0.88809525  1
  C  C115  1  0.50000000  0.74254342  0.56319434  1
  C  C116  1  0.50000000  0.74118104  0.88394936  1
  C  C117  1  0.50000000  0.26061039  0.60977184  1
  C  C118  1  0.50000000  0.26126758  0.94415157  1
  C  C119  1  0.50000000  0.31990057  0.61238834  1
  C  C120  1  0.50000000  0.32047319  0.94302091  1
  C  C121  1  0.50000000  0.38003748  0.61334485  1
  C  C122  1  0.50000000  0.38029763  0.94219157  1
  C  C123  1  0.50000000  0.44024478  0.61364639  1
  C  C124  1  0.50000000  0.44010833  0.94160231  1
  C  C125  1  0.50000000  0.50045953  0.61261753  1
  C  C126  1  0.50000000  0.49998285  0.94260828  1
  C  C127  1  0.50000000  0.55684644  0.27831404  1
  C  C128  1  0.50000000  0.56074264  0.61188210  1
  C  C129  1  0.50000000  0.56081421  0.94351411  1
  C  C130  1  0.50000000  0.61671987  0.27746558  1
  C  C131  1  0.50000000  0.62101538  0.61101020  1
  C  C132  1  0.50000000  0.62158077  0.94479633  1
  C  C133  1  0.50000000  0.67608269  0.27638762  1
  C  C134  1  0.50000000  0.68109729  0.61189270  1
  C  C135  1  0.50000000  0.68215227  0.94349871  1
  C  C136  1  0.50000000  0.74118445  0.61599873  1
  C  C137  1  0.50000000  0.74253914  0.93674573  1
  H  H138  1  0.50000000  0.23676509  0.70375655  1
  H  H139  1  0.50000000  0.76296835  0.70436510  1
  H  H140  1  0.50000000  0.23677024  0.79622646  1
  H  H141  1  0.50000000  0.76301158  0.79535896  1
  H  H142  1  0.50000000  0.23831388  0.53441945  1
  H  H143  1  0.50000000  0.23695274  0.87104125  1
  H  H144  1  0.50000000  0.76590617  0.54283286  1
  H  H145  1  0.50000000  0.76375697  0.86212486  1
  H  H146  1  0.50000000  0.23693245  0.62891469  1
  H  H147  1  0.50000000  0.23829569  0.96547729  1
  H  H148  1  0.50000000  0.76375133  0.63785453  1
  H  H149  1  0.50000000  0.76593191  0.95699159  1
  H  H150  1  0.50000000  0.29116382  0.01245346  1
  H  H151  1  0.50000000  0.35091303  0.01090835  1
  H  H152  1  0.50000000  0.41051689  0.01028163  1
  H  H153  1  0.50000000  0.46897508  0.00987067  1
  H  H154  1  0.50000000  0.50434253  0.28885976  1
  H  H155  1  0.50000000  0.71889692  0.00513085  1
  H  H156  1  0.50000000  0.50766357  0.04485610  1
  H  H157  1  0.50000000  0.50518395  0.38151100  1
  H  H158  1  0.50000000  0.70186127  0.04743924  1
  H  H159  1  0.50000000  0.69961796  0.36587252  1
  H  H160  1  0.50000000  0.69958501  0.13433347  1
  H  H161  1  0.50000000  0.70187360  0.45250202  1
  H  H162  1  0.50000000  0.50516933  0.11863239  1
  H  H163  1  0.50000000  0.50765009  0.45522057  1
  H  H164  1  0.50000000  0.29113679  0.48757261  1
  H  H165  1  0.50000000  0.35089427  0.48899861  1
  H  H166  1  0.50000000  0.41049893  0.48973795  1
  H  H167  1  0.50000000  0.46895096  0.49018356  1
  H  H168  1  0.50000000  0.50434203  0.21106957  1
  H  H169  1  0.50000000  0.71889420  0.49486521  1
  H  H170  1  0.50000000  0.69949643  0.20391055  1
  H  H171  1  0.50000000  0.69948568  0.29617454  1
