# generated using pymatgen
data_H17C69
_symmetry_space_group_name_H-M   'P 1'
_cell_length_a   10.00000000
_cell_length_b   41.10890000
_cell_length_c   26.04723225
_cell_angle_alpha   90.00000000
_cell_angle_beta   90.00000000
_cell_angle_gamma   90.00000000
_symmetry_Int_Tables_number   1
_chemical_formula_structural   H17C69
_chemical_formula_sum   'H34 C138'
_cell_volume   10707.73065928
_cell_formula_units_Z   2
loop_
 _symmetry_equiv_pos_site_id
 _symmetry_equiv_pos_as_xyz
  1  'x, y, z'
loop_
 _atom_site_type_symbol
 _atom_site_label
 _atom_site_symmetry_multiplicity
 _atom_site_fract_x
 _atom_site_fract_y
 _atom_site_fract_z
 _atom_site_occupancy
  C  C0  1  0.50000000  0.28771629  0.63867854  1
  C  C1  1  0.50000000  0.28843931  0.96998274  1
  C  C2  1  0.50000000  0.34809494  0.63992339  1
  C  C3  1  0.50000000  0.34849295  0.96879331  1
  C  C4  1  0.50000000  0.40808612  0.64058908  1
  C  C5  1  0.50000000  0.40842033  0.96817082  1
  C  C6  1  0.50000000  0.46806702  0.64148468  1
  C  C7  1  0.50000000  0.46837082  0.96697907  1
  C  C8  1  0.50000000  0.52875542  0.64042014  1
  C  C9  1  0.50000000  0.52750202  0.96578879  1
  C  C10  1  0.50000000  0.59546724  0.30412924  1
  C  C11  1  0.50000000  0.58879017  0.63924709  1
  C  C12  1  0.50000000  0.58916087  0.97326659  1
  C  C13  1  0.50000000  0.65523398  0.30607006  1
  C  C14  1  0.50000000  0.64852684  0.63929036  1
  C  C15  1  0.50000000  0.64971307  0.97192004  1
  C  C16  1  0.50000000  0.71395366  0.30837508  1
  C  C17  1  0.50000000  0.70881754  0.63959143  1
  C  C18  1  0.50000000  0.70958867  0.96977778  1
  C  C19  1  0.50000000  0.28767209  0.69468260  1
  C  C20  1  0.50000000  0.34795357  0.69501921  1
  C  C21  1  0.50000000  0.40799023  0.69536037  1
  C  C22  1  0.50000000  0.46818803  0.69602497  1
  C  C23  1  0.50000000  0.52873698  0.69543138  1
  C  C24  1  0.50000000  0.59117153  0.02951613  1
  C  C25  1  0.50000000  0.59510457  0.35928663  1
  C  C26  1  0.50000000  0.58874861  0.69463236  1
  C  C27  1  0.50000000  0.65146564  0.02695715  1
  C  C28  1  0.50000000  0.65448734  0.36160535  1
  C  C29  1  0.50000000  0.64846689  0.69449325  1
  C  C30  1  0.50000000  0.71046263  0.02386644  1
  C  C31  1  0.50000000  0.71325230  0.36184165  1
  C  C32  1  0.50000000  0.70859082  0.69508432  1
  C  C33  1  0.50000000  0.25859609  0.72315896  1
  C  C34  1  0.50000000  0.31768093  0.72225697  1
  C  C35  1  0.50000000  0.37780689  0.72239093  1
  C  C36  1  0.50000000  0.43802756  0.72265436  1
  C  C37  1  0.50000000  0.49855093  0.72267169  1
  C  C38  1  0.50000000  0.56382706  0.06267896  1
  C  C39  1  0.50000000  0.56542994  0.38532460  1
  C  C40  1  0.50000000  0.55876582  0.72254051  1
  C  C41  1  0.50000000  0.62201418  0.05586773  1
  C  C42  1  0.50000000  0.62385059  0.38873976  1
  C  C43  1  0.50000000  0.61860904  0.72233661  1
  C  C44  1  0.50000000  0.68238294  0.05355462  1
  C  C45  1  0.50000000  0.68384584  0.39008913  1
  C  C46  1  0.50000000  0.67852143  0.72232860  1
  C  C47  1  0.50000000  0.73779767  0.72354334  1
  C  C48  1  0.50000000  0.25858602  0.77635081  1
  C  C49  1  0.50000000  0.31767300  0.77739674  1
  C  C50  1  0.50000000  0.37779704  0.77744297  1
  C  C51  1  0.50000000  0.43801998  0.77730007  1
  C  C52  1  0.50000000  0.49853851  0.77738461  1
  C  C53  1  0.50000000  0.56541247  0.11497547  1
  C  C54  1  0.50000000  0.56390891  0.43761495  1
  C  C55  1  0.50000000  0.55875250  0.77756827  1
  C  C56  1  0.50000000  0.62383384  0.11146915  1
  C  C57  1  0.50000000  0.62206804  0.44432543  1
  C  C58  1  0.50000000  0.61858274  0.77779649  1
  C  C59  1  0.50000000  0.68384278  0.11008173  1
  C  C60  1  0.50000000  0.68240709  0.44659877  1
  C  C61  1  0.50000000  0.67851089  0.77768739  1
  C  C62  1  0.50000000  0.73779392  0.77644981  1
  C  C63  1  0.50000000  0.28764200  0.80488115  1
  C  C64  1  0.50000000  0.34792354  0.80472600  1
  C  C65  1  0.50000000  0.40796732  0.80453043  1
  C  C66  1  0.50000000  0.46816439  0.80399187  1
  C  C67  1  0.50000000  0.52871322  0.80466534  1
  C  C68  1  0.50000000  0.59509743  0.14096504  1
  C  C69  1  0.50000000  0.59125270  0.47070498  1
  C  C70  1  0.50000000  0.58872994  0.80548653  1
  C  C71  1  0.50000000  0.65448358  0.13858198  1
  C  C72  1  0.50000000  0.65150984  0.47321199  1
  C  C73  1  0.50000000  0.64843714  0.80557571  1
  C  C74  1  0.50000000  0.71324882  0.13835943  1
  C  C75  1  0.50000000  0.71050575  0.47623275  1
  C  C76  1  0.50000000  0.70857108  0.80493372  1
  C  C77  1  0.50000000  0.28861943  0.52951159  1
  C  C78  1  0.50000000  0.28764176  0.86087632  1
  C  C79  1  0.50000000  0.34864534  0.53086686  1
  C  C80  1  0.50000000  0.34803319  0.85981506  1
  C  C81  1  0.50000000  0.40856173  0.53172664  1
  C  C82  1  0.50000000  0.40803866  0.85930539  1
  C  C83  1  0.50000000  0.46847720  0.53314631  1
  C  C84  1  0.50000000  0.46801723  0.85854942  1
  C  C85  1  0.50000000  0.52753438  0.53423325  1
  C  C86  1  0.50000000  0.52870856  0.85969783  1
  C  C87  1  0.50000000  0.59544455  0.19612822  1
  C  C88  1  0.50000000  0.58920447  0.52691652  1
  C  C89  1  0.50000000  0.58875772  0.86086141  1
  C  C90  1  0.50000000  0.65522391  0.19412200  1
  C  C91  1  0.50000000  0.64975216  0.52822861  1
  C  C92  1  0.50000000  0.64848464  0.86082079  1
  C  C93  1  0.50000000  0.71394372  0.19183273  1
  C  C94  1  0.50000000  0.70964320  0.53031582  1
  C  C95  1  0.50000000  0.70875730  0.86047763  1
  C  C96  1  0.50000000  0.25932618  0.55587153  1
  C  C97  1  0.50000000  0.25870942  0.88969766  1
  C  C98  1  0.50000000  0.31857364  0.55673572  1
  C  C99  1  0.50000000  0.31797291  0.88751563  1
  C  C100  1  0.50000000  0.37842319  0.55750672  1
  C  C101  1  0.50000000  0.37803283  0.88672144  1
  C  C102  1  0.50000000  0.43829970  0.55845506  1
  C  C103  1  0.50000000  0.43817995  0.88608191  1
  C  C104  1  0.50000000  0.49788045  0.56060841  1
  C  C105  1  0.50000000  0.49819856  0.88507511  1
  C  C106  1  0.50000000  0.56603540  0.22382958  1
  C  C107  1  0.50000000  0.55843412  0.55621616  1
  C  C108  1  0.50000000  0.55875092  0.88809745  1
  C  C109  1  0.50000000  0.62538614  0.22266991  1
  C  C110  1  0.50000000  0.61882773  0.55513405  1
  C  C111  1  0.50000000  0.61876498  0.88894435  1
  C  C112  1  0.50000000  0.68522026  0.22173805  1
  C  C113  1  0.50000000  0.67925175  0.55708018  1
  C  C114  1  0.50000000  0.67893439  0.88795855  1
  C  C115  1  0.50000000  0.73905089  0.55894778  1
  C  C116  1  0.50000000  0.73851315  0.88846043  1
  C  C117  1  0.50000000  0.25882763  0.60973415  1
  C  C118  1  0.50000000  0.25916625  0.94356234  1
  C  C119  1  0.50000000  0.31806948  0.61211838  1
  C  C120  1  0.50000000  0.31843369  0.94287888  1
  C  C121  1  0.50000000  0.37810767  0.61307966  1
  C  C122  1  0.50000000  0.37831025  0.94228021  1
  C  C123  1  0.50000000  0.43824619  0.61390271  1
  C  C124  1  0.50000000  0.43820629  0.94155328  1
  C  C125  1  0.50000000  0.49825630  0.61502228  1
  C  C126  1  0.50000000  0.49778554  0.93951186  1
  C  C127  1  0.50000000  0.56605858  0.27646052  1
  C  C128  1  0.50000000  0.55878297  0.61200881  1
  C  C129  1  0.50000000  0.55842643  0.94387684  1
  C  C130  1  0.50000000  0.62539714  0.27754951  1
  C  C131  1  0.50000000  0.61879771  0.61116437  1
  C  C132  1  0.50000000  0.61878443  0.94502781  1
  C  C133  1  0.50000000  0.68523029  0.27845884  1
  C  C134  1  0.50000000  0.67898860  0.61213798  1
  C  C135  1  0.50000000  0.67919991  0.94302876  1
  C  C136  1  0.50000000  0.73857976  0.61160775  1
  C  C137  1  0.50000000  0.73898667  0.94112038  1
  H  H138  1  0.50000000  0.23513214  0.70342946  1
  H  H139  1  0.50000000  0.76122834  0.70382686  1
  H  H140  1  0.50000000  0.23511348  0.79604679  1
  H  H141  1  0.50000000  0.76121800  0.79619113  1
  H  H142  1  0.50000000  0.23628351  0.53468372  1
  H  H143  1  0.50000000  0.23518607  0.87013463  1
  H  H144  1  0.50000000  0.76222260  0.53807911  1
  H  H145  1  0.50000000  0.76167969  0.86795971  1
  H  H146  1  0.50000000  0.23525288  0.62910997  1
  H  H147  1  0.50000000  0.23612363  0.96473038  1
  H  H148  1  0.50000000  0.76171624  0.63220204  1
  H  H149  1  0.50000000  0.76217588  0.96191205  1
  H  H150  1  0.50000000  0.28876490  0.01204844  1
  H  H151  1  0.50000000  0.34862400  0.01088181  1
  H  H152  1  0.50000000  0.40868449  0.01027044  1
  H  H153  1  0.50000000  0.46903545  0.00911366  1
  H  H154  1  0.50000000  0.52340126  0.00620798  1
  H  H155  1  0.50000000  0.73777540  0.28956852  1
  H  H156  1  0.50000000  0.73448580  0.04197800  1
  H  H157  1  0.50000000  0.73661290  0.38202915  1
  H  H158  1  0.50000000  0.53919375  0.04969645  1
  H  H159  1  0.50000000  0.54236715  0.36470684  1
  H  H160  1  0.50000000  0.54240919  0.13577098  1
  H  H161  1  0.50000000  0.53932919  0.45077125  1
  H  H162  1  0.50000000  0.73662660  0.11822772  1
  H  H163  1  0.50000000  0.73450140  0.45801177  1
  H  H164  1  0.50000000  0.28902509  0.48743031  1
  H  H165  1  0.50000000  0.34877346  0.48874199  1
  H  H166  1  0.50000000  0.40887092  0.48962578  1
  H  H167  1  0.50000000  0.46916025  0.49106480  1
  H  H168  1  0.50000000  0.52332302  0.49379853  1
  H  H169  1  0.50000000  0.73775293  0.21070421  1
  H  H170  1  0.50000000  0.54264878  0.20415993  1
  H  H171  1  0.50000000  0.54271651  0.29630093  1
