# generated using pymatgen
data_H11C30
_symmetry_space_group_name_H-M   'P 1'
_cell_length_a   20.00000000
_cell_length_b   37.22700000
_cell_length_c   26.23566269
_cell_angle_alpha   90.00000000
_cell_angle_beta   90.00000000
_cell_angle_gamma   90.00000000
_symmetry_Int_Tables_number   1
_chemical_formula_structural   H11C30
_chemical_formula_sum   'H44 C120'
_cell_volume   19533.50030068
_cell_formula_units_Z   4
loop_
 _symmetry_equiv_pos_site_id
 _symmetry_equiv_pos_as_xyz
  1  'x, y, z'
loop_
 _atom_site_type_symbol
 _atom_site_label
 _atom_site_symmetry_multiplicity
 _atom_site_fract_x
 _atom_site_fract_y
 _atom_site_fract_z
 _atom_site_occupancy
  C  C0  1  0.50000000  0.30782489  0.22213987  1
  C  C1  1  0.50000000  0.31939857  0.55580760  1
  C  C2  1  0.50000000  0.31937149  0.88833467  1
  C  C3  1  0.50000000  0.37377819  0.22397701  1
  C  C4  1  0.50000000  0.38597034  0.55656475  1
  C  C5  1  0.50000000  0.38554158  0.88800438  1
  C  C6  1  0.50000000  0.45281204  0.56111658  1
  C  C7  1  0.50000000  0.45226196  0.88478550  1
  C  C8  1  0.50000000  0.51861698  0.55987810  1
  C  C9  1  0.50000000  0.51844745  0.88521562  1
  C  C10  1  0.50000000  0.58463007  0.55984074  1
  C  C11  1  0.50000000  0.58478648  0.88537664  1
  C  C12  1  0.50000000  0.65092614  0.55812563  1
  C  C13  1  0.50000000  0.65132692  0.88648406  1
  C  C14  1  0.50000000  0.71503830  0.22328381  1
  C  C15  1  0.50000000  0.71738093  0.55950787  1
  C  C16  1  0.50000000  0.71702882  0.88840601  1
  C  C17  1  0.50000000  0.30783662  0.27790597  1
  C  C18  1  0.50000000  0.31939798  0.61185365  1
  C  C19  1  0.50000000  0.31931516  0.94435433  1
  C  C20  1  0.50000000  0.37379093  0.27598466  1
  C  C21  1  0.50000000  0.38552833  0.61219614  1
  C  C22  1  0.50000000  0.38594731  0.94365073  1
  C  C23  1  0.50000000  0.45227765  0.61530707  1
  C  C24  1  0.50000000  0.45278114  0.93897445  1
  C  C25  1  0.50000000  0.51849390  0.61486360  1
  C  C26  1  0.50000000  0.51857458  0.94022255  1
  C  C27  1  0.50000000  0.58486793  0.61469309  1
  C  C28  1  0.50000000  0.58454868  0.94024646  1
  C  C29  1  0.50000000  0.65142174  0.61354773  1
  C  C30  1  0.50000000  0.65081839  0.94189076  1
  C  C31  1  0.50000000  0.71511542  0.27605146  1
  C  C32  1  0.50000000  0.71713020  0.61159902  1
  C  C33  1  0.50000000  0.71726208  0.94047431  1
  C  C34  1  0.50000000  0.27643452  0.30932932  1
  C  C35  1  0.50000000  0.28728187  0.64044587  1
  C  C36  1  0.50000000  0.28582973  0.97069528  1
  C  C37  1  0.50000000  0.34126195  0.30430507  1
  C  C38  1  0.50000000  0.35235313  0.63968670  1
  C  C39  1  0.50000000  0.35176781  0.97312090  1
  C  C40  1  0.50000000  0.41848569  0.64057992  1
  C  C41  1  0.50000000  0.42002156  0.96556633  1
  C  C42  1  0.50000000  0.48540237  0.64202778  1
  C  C43  1  0.50000000  0.48552830  0.96580853  1
  C  C44  1  0.50000000  0.55170015  0.64165980  1
  C  C45  1  0.50000000  0.55183563  0.96635975  1
  C  C46  1  0.50000000  0.61808927  0.64109173  1
  C  C47  1  0.50000000  0.61784662  0.96651069  1
  C  C48  1  0.50000000  0.68449425  0.30814052  1
  C  C49  1  0.50000000  0.68431091  0.64032257  1
  C  C50  1  0.50000000  0.68492932  0.96995064  1
  C  C51  1  0.50000000  0.28310254  0.02300731  1
  C  C52  1  0.50000000  0.27788516  0.36220402  1
  C  C53  1  0.50000000  0.28709881  0.69342563  1
  C  C54  1  0.50000000  0.34861716  0.02910880  1
  C  C55  1  0.50000000  0.34257232  0.35923789  1
  C  C56  1  0.50000000  0.35221556  0.69480730  1
  C  C57  1  0.50000000  0.41835522  0.69547197  1
  C  C58  1  0.50000000  0.48515610  0.69631639  1
  C  C59  1  0.50000000  0.55168202  0.69597326  1
  C  C60  1  0.50000000  0.61809594  0.69563550  1
  C  C61  1  0.50000000  0.68590385  0.02315667  1
  C  C62  1  0.50000000  0.68496143  0.36098930  1
  C  C63  1  0.50000000  0.68450067  0.69522152  1
  C  C64  1  0.50000000  0.31406120  0.05441004  1
  C  C65  1  0.50000000  0.31109844  0.38979909  1
  C  C66  1  0.50000000  0.31907891  0.72220758  1
  C  C67  1  0.50000000  0.37839543  0.06335248  1
  C  C68  1  0.50000000  0.37592447  0.38482070  1
  C  C69  1  0.50000000  0.38534437  0.72264127  1
  C  C70  1  0.50000000  0.45163643  0.72282502  1
  C  C71  1  0.50000000  0.51838734  0.72291970  1
  C  C72  1  0.50000000  0.58491451  0.72275347  1
  C  C73  1  0.50000000  0.65135501  0.72270139  1
  C  C74  1  0.50000000  0.71663862  0.05434603  1
  C  C75  1  0.50000000  0.71599506  0.39221800  1
  C  C76  1  0.50000000  0.71684853  0.72378348  1
  C  C77  1  0.50000000  0.31093780  0.11028619  1
  C  C78  1  0.50000000  0.31421500  0.44565189  1
  C  C79  1  0.50000000  0.31909619  0.77796797  1
  C  C80  1  0.50000000  0.37573681  0.11522745  1
  C  C81  1  0.50000000  0.37854629  0.43671571  1
  C  C82  1  0.50000000  0.38534137  0.77751573  1
  C  C83  1  0.50000000  0.45163456  0.77726645  1
  C  C84  1  0.50000000  0.51838293  0.77709235  1
  C  C85  1  0.50000000  0.58489735  0.77726451  1
  C  C86  1  0.50000000  0.65131904  0.77732018  1
  C  C87  1  0.50000000  0.71616526  0.10734458  1
  C  C88  1  0.50000000  0.71654712  0.44524655  1
  C  C89  1  0.50000000  0.71682132  0.77627688  1
  C  C90  1  0.50000000  0.27775391  0.13792962  1
  C  C91  1  0.50000000  0.28327198  0.47707789  1
  C  C92  1  0.50000000  0.28712440  0.80675340  1
  C  C93  1  0.50000000  0.34241448  0.14083171  1
  C  C94  1  0.50000000  0.34876126  0.47096418  1
  C  C95  1  0.50000000  0.35222576  0.80539394  1
  C  C96  1  0.50000000  0.41835779  0.80464466  1
  C  C97  1  0.50000000  0.48515628  0.80374247  1
  C  C98  1  0.50000000  0.55165952  0.80405181  1
  C  C99  1  0.50000000  0.61805324  0.80440566  1
  C  C100  1  0.50000000  0.68507078  0.13846627  1
  C  C101  1  0.50000000  0.68594478  0.47674531  1
  C  C102  1  0.50000000  0.68444852  0.80480030  1
  C  C103  1  0.50000000  0.27638037  0.19081122  1
  C  C104  1  0.50000000  0.28594961  0.52938954  1
  C  C105  1  0.50000000  0.28727418  0.85971287  1
  C  C106  1  0.50000000  0.34122398  0.19573830  1
  C  C107  1  0.50000000  0.35185029  0.52700910  1
  C  C108  1  0.50000000  0.35235759  0.86053694  1
  C  C109  1  0.50000000  0.42002347  0.53461328  1
  C  C110  1  0.50000000  0.41847375  0.85953951  1
  C  C111  1  0.50000000  0.48556431  0.53428470  1
  C  C112  1  0.50000000  0.48537727  0.85804549  1
  C  C113  1  0.50000000  0.55189492  0.53377946  1
  C  C114  1  0.50000000  0.55164203  0.85837904  1
  C  C115  1  0.50000000  0.61793314  0.53354453  1
  C  C116  1  0.50000000  0.61800414  0.85895733  1
  C  C117  1  0.50000000  0.68442980  0.19125182  1
  C  C118  1  0.50000000  0.68504757  0.53000003  1
  C  C119  1  0.50000000  0.68421412  0.85969776  1
  H  H120  1  0.50000000  0.74142726  0.20467859  1
  H  H121  1  0.50000000  0.74324235  0.53977441  1
  H  H122  1  0.50000000  0.74281819  0.86854457  1
  H  H123  1  0.50000000  0.74158211  0.29445344  1
  H  H124  1  0.50000000  0.74290515  0.63151388  1
  H  H125  1  0.50000000  0.74312199  0.96020150  1
  H  H126  1  0.50000000  0.24992475  0.29123301  1
  H  H127  1  0.50000000  0.26122877  0.62120465  1
  H  H128  1  0.50000000  0.26082995  0.94887374  1
  H  H129  1  0.50000000  0.25629261  0.04009970  1
  H  H130  1  0.50000000  0.25234549  0.38292106  1
  H  H131  1  0.50000000  0.26107557  0.71283214  1
  H  H132  1  0.50000000  0.74317393  0.03615410  1
  H  H133  1  0.50000000  0.74229044  0.37332059  1
  H  H134  1  0.50000000  0.74279937  0.70431385  1
  H  H135  1  0.50000000  0.74246225  0.12624109  1
  H  H136  1  0.50000000  0.74318257  0.46314997  1
  H  H137  1  0.50000000  0.74276191  0.79576698  1
  H  H138  1  0.50000000  0.25225694  0.11710219  1
  H  H139  1  0.50000000  0.25644180  0.46007620  1
  H  H140  1  0.50000000  0.26107295  0.78746082  1
  H  H141  1  0.50000000  0.24990070  0.20901442  1
  H  H142  1  0.50000000  0.26087796  0.55104436  1
  H  H143  1  0.50000000  0.26117796  0.87883573  1
  H  H144  1  0.50000000  0.39970505  0.20464337  1
  H  H145  1  0.50000000  0.39971634  0.29532189  1
  H  H146  1  0.50000000  0.42420743  0.00598761  1
  H  H147  1  0.50000000  0.48520742  0.00762836  1
  H  H148  1  0.50000000  0.55190765  0.00818668  1
  H  H149  1  0.50000000  0.61632828  0.00817969  1
  H  H150  1  0.50000000  0.65795577  0.28995943  1
  H  H151  1  0.50000000  0.66009863  0.04308990  1
  H  H152  1  0.50000000  0.65862619  0.37985904  1
  H  H153  1  0.50000000  0.40575378  0.05055897  1
  H  H154  1  0.50000000  0.40116311  0.36369681  1
  H  H155  1  0.50000000  0.40096344  0.13641050  1
  H  H156  1  0.50000000  0.40590089  0.44950159  1
  H  H157  1  0.50000000  0.65877127  0.11950582  1
  H  H158  1  0.50000000  0.66007942  0.45695654  1
  H  H159  1  0.50000000  0.42405545  0.49416811  1
  H  H160  1  0.50000000  0.48521434  0.49246705  1
  H  H161  1  0.50000000  0.55196133  0.49197371  1
  H  H162  1  0.50000000  0.61644468  0.49187095  1
  H  H163  1  0.50000000  0.65784772  0.20933977  1
