# generated using pymatgen
data_H16C63
_symmetry_space_group_name_H-M   'P 1'
_cell_length_a   20.00000000
_cell_length_b   40.19450000
_cell_length_c   26.05004398
_cell_angle_alpha   90.00000000
_cell_angle_beta   90.00000000
_cell_angle_gamma   90.00000000
_symmetry_Int_Tables_number   1
_chemical_formula_structural   H16C63
_chemical_formula_sum   'H32 C126'
_cell_volume   20941.36985129
_cell_formula_units_Z   2
loop_
 _symmetry_equiv_pos_site_id
 _symmetry_equiv_pos_as_xyz
  1  'x, y, z'
loop_
 _atom_site_type_symbol
 _atom_site_label
 _atom_site_symmetry_multiplicity
 _atom_site_fract_x
 _atom_site_fract_y
 _atom_site_fract_z
 _atom_site_occupancy
  C  C0  1  0.50000000  0.28399748  0.61604932  1
  C  C1  1  0.50000000  0.28582787  0.77627005  1
  C  C2  1  0.50000000  0.28256195  0.93668784  1
  C  C3  1  0.50000000  0.31499451  0.64046133  1
  C  C4  1  0.50000000  0.31569300  0.80417381  1
  C  C5  1  0.50000000  0.31175850  0.96480766  1
  C  C6  1  0.50000000  0.28256043  0.56324387  1
  C  C7  1  0.50000000  0.28584241  0.72364273  1
  C  C8  1  0.50000000  0.28398852  0.88388807  1
  C  C9  1  0.50000000  0.35027611  0.11396390  1
  C  C10  1  0.50000000  0.34542953  0.61178105  1
  C  C11  1  0.50000000  0.35069605  0.27635212  1
  C  C12  1  0.50000000  0.34637165  0.77748213  1
  C  C13  1  0.50000000  0.34914726  0.43835874  1
  C  C14  1  0.50000000  0.34431706  0.94355884  1
  C  C15  1  0.50000000  0.38046511  0.14046972  1
  C  C16  1  0.50000000  0.37648854  0.63901233  1
  C  C17  1  0.50000000  0.38077742  0.30409896  1
  C  C18  1  0.50000000  0.37688670  0.80554382  1
  C  C19  1  0.50000000  0.37732974  0.47088670  1
  C  C20  1  0.50000000  0.37564408  0.97279366  1
  C  C21  1  0.50000000  0.31177143  0.53515654  1
  C  C22  1  0.50000000  0.31570037  0.69581256  1
  C  C23  1  0.50000000  0.31498551  0.85948029  1
  C  C24  1  0.50000000  0.34918726  0.06154175  1
  C  C25  1  0.50000000  0.34431608  0.55640273  1
  C  C26  1  0.50000000  0.35066430  0.22362162  1
  C  C27  1  0.50000000  0.34638213  0.72251035  1
  C  C28  1  0.50000000  0.35031325  0.38593416  1
  C  C29  1  0.50000000  0.34540162  0.88815186  1
  C  C30  1  0.50000000  0.41006462  0.11123494  1
  C  C31  1  0.50000000  0.40681225  0.61096179  1
  C  C32  1  0.50000000  0.41139039  0.27739208  1
  C  C33  1  0.50000000  0.40729842  0.77778896  1
  C  C34  1  0.50000000  0.40859599  0.44431919  1
  C  C35  1  0.50000000  0.40625259  0.94480840  1
  C  C36  1  0.50000000  0.44128359  0.13857342  1
  C  C37  1  0.50000000  0.43770520  0.63899126  1
  C  C38  1  0.50000000  0.44196041  0.30589160  1
  C  C39  1  0.50000000  0.43790425  0.80554320  1
  C  C40  1  0.50000000  0.43884691  0.47306337  1
  C  C41  1  0.50000000  0.43784756  0.97177187  1
  C  C42  1  0.50000000  0.37739695  0.02907938  1
  C  C43  1  0.50000000  0.37562881  0.52716712  1
  C  C44  1  0.50000000  0.38071867  0.19579597  1
  C  C45  1  0.50000000  0.37689903  0.69446234  1
  C  C46  1  0.50000000  0.38049554  0.35942171  1
  C  C47  1  0.50000000  0.37649056  0.86097149  1
  C  C48  1  0.50000000  0.40867118  0.05563394  1
  C  C49  1  0.50000000  0.40624503  0.55515241  1
  C  C50  1  0.50000000  0.41133804  0.22246945  1
  C  C51  1  0.50000000  0.40731889  0.72217329  1
  C  C52  1  0.50000000  0.41006638  0.38870660  1
  C  C53  1  0.50000000  0.40682043  0.88899463  1
  C  C54  1  0.50000000  0.47138083  0.11018798  1
  C  C55  1  0.50000000  0.46842005  0.61191385  1
  C  C56  1  0.50000000  0.47260894  0.27833713  1
  C  C57  1  0.50000000  0.46854253  0.77770499  1
  C  C58  1  0.50000000  0.46998892  0.44621612  1
  C  C59  1  0.50000000  0.46837482  0.94342980  1
  C  C60  1  0.50000000  0.50140711  0.13856274  1
  C  C61  1  0.50000000  0.49920663  0.63961604  1
  C  C62  1  0.50000000  0.50203903  0.30811968  1
  C  C63  1  0.50000000  0.49923388  0.80514616  1
  C  C64  1  0.50000000  0.49897379  0.47546554  1
  C  C65  1  0.50000000  0.49915615  0.97060517  1
  C  C66  1  0.50000000  0.43892512  0.02688605  1
  C  C67  1  0.50000000  0.43781654  0.52816938  1
  C  C68  1  0.50000000  0.44190655  0.19410496  1
  C  C69  1  0.50000000  0.43791776  0.69441717  1
  C  C70  1  0.50000000  0.44131005  0.36143521  1
  C  C71  1  0.50000000  0.43770772  0.86095569  1
  C  C72  1  0.50000000  0.47009225  0.05372385  1
  C  C73  1  0.50000000  0.46835490  0.55648950  1
  C  C74  1  0.50000000  0.47256144  0.22167725  1
  C  C75  1  0.50000000  0.46854308  0.72225997  1
  C  C76  1  0.50000000  0.47138114  0.38984174  1
  C  C77  1  0.50000000  0.46844478  0.88800411  1
  C  C78  1  0.50000000  0.53011055  0.61265719  1
  C  C79  1  0.50000000  0.52999590  0.77750856  1
  C  C80  1  0.50000000  0.53057525  0.94250782  1
  C  C81  1  0.50000000  0.56081144  0.64032894  1
  C  C82  1  0.50000000  0.56079977  0.80459578  1
  C  C83  1  0.50000000  0.56100073  0.96776164  1
  C  C84  1  0.50000000  0.49907671  0.02445039  1
  C  C85  1  0.50000000  0.49912161  0.52928860  1
  C  C86  1  0.50000000  0.50199375  0.19196406  1
  C  C87  1  0.50000000  0.49924310  0.69481704  1
  C  C88  1  0.50000000  0.50143042  0.36153235  1
  C  C89  1  0.50000000  0.49922586  0.86032588  1
  C  C90  1  0.50000000  0.53052589  0.55742115  1
  C  C91  1  0.50000000  0.52999553  0.72241883  1
  C  C92  1  0.50000000  0.53013757  0.88727660  1
  C  C93  1  0.50000000  0.59171858  0.61355138  1
  C  C94  1  0.50000000  0.59174488  0.77745147  1
  C  C95  1  0.50000000  0.59174093  0.94149490  1
  C  C96  1  0.50000000  0.62248983  0.64033711  1
  C  C97  1  0.50000000  0.62249407  0.80452097  1
  C  C98  1  0.50000000  0.62192362  0.96838039  1
  C  C99  1  0.50000000  0.56095158  0.53216872  1
  C  C100  1  0.50000000  0.56078908  0.69529094  1
  C  C101  1  0.50000000  0.56082902  0.85954501  1
  C  C102  1  0.50000000  0.59169567  0.55838635  1
  C  C103  1  0.50000000  0.59173920  0.72239232  1
  C  C104  1  0.50000000  0.59173473  0.88632799  1
  C  C105  1  0.50000000  0.65311488  0.61244817  1
  C  C106  1  0.50000000  0.65352545  0.77741559  1
  C  C107  1  0.50000000  0.65270831  0.94266249  1
  C  C108  1  0.50000000  0.68429823  0.63885098  1
  C  C109  1  0.50000000  0.68431148  0.80488852  1
  C  C110  1  0.50000000  0.68326130  0.96999613  1
  C  C111  1  0.50000000  0.62185252  0.53141606  1
  C  C112  1  0.50000000  0.62247742  0.69531504  1
  C  C113  1  0.50000000  0.62251313  0.85950360  1
  C  C114  1  0.50000000  0.65264256  0.55710038  1
  C  C115  1  0.50000000  0.65352263  0.72236295  1
  C  C116  1  0.50000000  0.65315856  0.88733154  1
  C  C117  1  0.50000000  0.71377917  0.60980624  1
  C  C118  1  0.50000000  0.71407700  0.77643463  1
  C  C119  1  0.50000000  0.71324432  0.94377530  1
  C  C120  1  0.50000000  0.68317241  0.52970797  1
  C  C121  1  0.50000000  0.68429824  0.69483149  1
  C  C122  1  0.50000000  0.68432705  0.86086970  1
  C  C123  1  0.50000000  0.71315845  0.55588918  1
  C  C124  1  0.50000000  0.71407120  0.72324656  1
  C  C125  1  0.50000000  0.71383279  0.88985164  1
  H  H126  1  0.50000000  0.26093682  0.63795993  1
  H  H127  1  0.50000000  0.26173798  0.79541176  1
  H  H128  1  0.50000000  0.25862483  0.95688861  1
  H  H129  1  0.50000000  0.25866526  0.54289700  1
  H  H130  1  0.50000000  0.26181883  0.70425443  1
  H  H131  1  0.50000000  0.26090070  0.86206284  1
  H  H132  1  0.50000000  0.73800101  0.62895984  1
  H  H133  1  0.50000000  0.73813149  0.79610467  1
  H  H134  1  0.50000000  0.73675882  0.96508378  1
  H  H135  1  0.50000000  0.73659106  0.53436808  1
  H  H136  1  0.50000000  0.73810745  0.70352559  1
  H  H137  1  0.50000000  0.73802723  0.87057758  1
  H  H138  1  0.50000000  0.68261872  0.48762626  1
  H  H139  1  0.50000000  0.30666177  0.00510604  1
  H  H140  1  0.50000000  0.32653709  0.13425759  1
  H  H141  1  0.50000000  0.32678508  0.29619494  1
  H  H142  1  0.50000000  0.32420094  0.45235457  1
  H  H143  1  0.50000000  0.30669578  0.49486173  1
  H  H144  1  0.50000000  0.32431565  0.04724606  1
  H  H145  1  0.50000000  0.32672081  0.20389758  1
  H  H146  1  0.50000000  0.32654635  0.36576535  1
  H  H147  1  0.50000000  0.62149752  0.01047877  1
  H  H148  1  0.50000000  0.68265306  0.01205402  1
  H  H149  1  0.50000000  0.62140770  0.48929321  1
  H  H150  1  0.50000000  0.56227176  0.00966196  1
  H  H151  1  0.50000000  0.56220934  0.49029863  1
  H  H152  1  0.50000000  0.52539346  0.11863399  1
  H  H153  1  0.50000000  0.52635501  0.28923889  1
  H  H154  1  0.50000000  0.52273665  0.45540163  1
  H  H155  1  0.50000000  0.52284365  0.04453458  1
  H  H156  1  0.50000000  0.52628310  0.21093512  1
  H  H157  1  0.50000000  0.52540066  0.38153404  1
