# generated using pymatgen
data_H8C23
_symmetry_space_group_name_H-M   'P 1'
_cell_length_a   10.00000000
_cell_length_b   41.10890000
_cell_length_c   26.36626182
_cell_angle_alpha   90.00000000
_cell_angle_beta   90.00000000
_cell_angle_gamma   90.00000000
_symmetry_Int_Tables_number   1
_chemical_formula_structural   H8C23
_chemical_formula_sum   'H48 C138'
_cell_volume   10838.88020683
_cell_formula_units_Z   6
loop_
 _symmetry_equiv_pos_site_id
 _symmetry_equiv_pos_as_xyz
  1  'x, y, z'
loop_
 _atom_site_type_symbol
 _atom_site_label
 _atom_site_symmetry_multiplicity
 _atom_site_fract_x
 _atom_site_fract_y
 _atom_site_fract_z
 _atom_site_occupancy
  C  C0  1  0.50000000  0.27592651  0.30491040  1
  C  C1  1  0.50000000  0.28967084  0.63991163  1
  C  C2  1  0.50000000  0.28971718  0.97155342  1
  C  C3  1  0.50000000  0.34965236  0.64101967  1
  C  C4  1  0.50000000  0.35104188  0.96507940  1
  C  C5  1  0.50000000  0.41009377  0.64219564  1
  C  C6  1  0.50000000  0.41015105  0.96514055  1
  C  C7  1  0.50000000  0.47002963  0.64169322  1
  C  C8  1  0.50000000  0.47001140  0.96585864  1
  C  C9  1  0.50000000  0.52997040  0.64169321  1
  C  C10  1  0.50000000  0.52998861  0.96585865  1
  C  C11  1  0.50000000  0.58990625  0.64219564  1
  C  C12  1  0.50000000  0.58984897  0.96514057  1
  C  C13  1  0.50000000  0.65034766  0.64101966  1
  C  C14  1  0.50000000  0.64895814  0.96507940  1
  C  C15  1  0.50000000  0.72407350  0.30491040  1
  C  C16  1  0.50000000  0.71032917  0.63991163  1
  C  C17  1  0.50000000  0.71028285  0.97155341  1
  C  C18  1  0.50000000  0.28636204  0.02814081  1
  C  C19  1  0.50000000  0.27786504  0.36098059  1
  C  C20  1  0.50000000  0.28947128  0.69536088  1
  C  C21  1  0.50000000  0.34957707  0.69560531  1
  C  C22  1  0.50000000  0.40988533  0.69628949  1
  C  C23  1  0.50000000  0.46998231  0.69599658  1
  C  C24  1  0.50000000  0.53001771  0.69599658  1
  C  C25  1  0.50000000  0.59011468  0.69628949  1
  C  C26  1  0.50000000  0.65042295  0.69560530  1
  C  C27  1  0.50000000  0.71363797  0.02814082  1
  C  C28  1  0.50000000  0.72213497  0.36098059  1
  C  C29  1  0.50000000  0.71052874  0.69536088  1
  C  C30  1  0.50000000  0.25538409  0.05238692  1
  C  C31  1  0.50000000  0.25126952  0.39488025  1
  C  C32  1  0.50000000  0.26041270  0.72377855  1
  C  C33  1  0.50000000  0.31238488  0.06328562  1
  C  C34  1  0.50000000  0.30841810  0.38459387  1
  C  C35  1  0.50000000  0.31944423  0.72275421  1
  C  C36  1  0.50000000  0.37955722  0.72276830  1
  C  C37  1  0.50000000  0.43999713  0.72292702  1
  C  C38  1  0.50000000  0.50000001  0.72288942  1
  C  C39  1  0.50000000  0.56000289  0.72292702  1
  C  C40  1  0.50000000  0.62044280  0.72276829  1
  C  C41  1  0.50000000  0.68761512  0.06328564  1
  C  C42  1  0.50000000  0.69158191  0.38459390  1
  C  C43  1  0.50000000  0.68055579  0.72275420  1
  C  C44  1  0.50000000  0.74461592  0.05238693  1
  C  C45  1  0.50000000  0.74873049  0.39488026  1
  C  C46  1  0.50000000  0.73958733  0.72377855  1
  C  C47  1  0.50000000  0.25122501  0.10506163  1
  C  C48  1  0.50000000  0.25537102  0.44757464  1
  C  C49  1  0.50000000  0.26042467  0.77646241  1
  C  C50  1  0.50000000  0.30838485  0.11544811  1
  C  C51  1  0.50000000  0.31237425  0.43673197  1
  C  C52  1  0.50000000  0.31945327  0.77732624  1
  C  C53  1  0.50000000  0.37955728  0.77728055  1
  C  C54  1  0.50000000  0.43999804  0.77705613  1
  C  C55  1  0.50000000  0.50000001  0.77705737  1
  C  C56  1  0.50000000  0.56000198  0.77705613  1
  C  C57  1  0.50000000  0.62044274  0.77728055  1
  C  C58  1  0.50000000  0.69161516  0.11544812  1
  C  C59  1  0.50000000  0.68762578  0.43673198  1
  C  C60  1  0.50000000  0.68054675  0.77732622  1
  C  C61  1  0.50000000  0.74877501  0.10506164  1
  C  C62  1  0.50000000  0.74462899  0.44757464  1
  C  C63  1  0.50000000  0.73957536  0.77646241  1
  C  C64  1  0.50000000  0.27780238  0.13898795  1
  C  C65  1  0.50000000  0.28634469  0.47189188  1
  C  C66  1  0.50000000  0.28950804  0.80477945  1
  C  C67  1  0.50000000  0.34958285  0.80445906  1
  C  C68  1  0.50000000  0.40989183  0.80371766  1
  C  C69  1  0.50000000  0.46998707  0.80395875  1
  C  C70  1  0.50000000  0.53001294  0.80395875  1
  C  C71  1  0.50000000  0.59010819  0.80371765  1
  C  C72  1  0.50000000  0.65041718  0.80445905  1
  C  C73  1  0.50000000  0.72219763  0.13898795  1
  C  C74  1  0.50000000  0.71365533  0.47189190  1
  C  C75  1  0.50000000  0.71049198  0.80477944  1
  C  C76  1  0.50000000  0.27584107  0.19505029  1
  C  C77  1  0.50000000  0.28970386  0.52850764  1
  C  C78  1  0.50000000  0.28971007  0.86020113  1
  C  C79  1  0.50000000  0.35099963  0.53494061  1
  C  C80  1  0.50000000  0.34966071  0.85903403  1
  C  C81  1  0.50000000  0.41011201  0.53475179  1
  C  C82  1  0.50000000  0.41009986  0.85779270  1
  C  C83  1  0.50000000  0.46999521  0.53409753  1
  C  C84  1  0.50000000  0.47003574  0.85825187  1
  C  C85  1  0.50000000  0.53000481  0.53409754  1
  C  C86  1  0.50000000  0.52996427  0.85825187  1
  C  C87  1  0.50000000  0.58988801  0.53475180  1
  C  C88  1  0.50000000  0.58990015  0.85779269  1
  C  C89  1  0.50000000  0.64900040  0.53494062  1
  C  C90  1  0.50000000  0.65033931  0.85903402  1
  C  C91  1  0.50000000  0.72415894  0.19505030  1
  C  C92  1  0.50000000  0.71029615  0.52850763  1
  C  C93  1  0.50000000  0.71028996  0.86020112  1
  C  C94  1  0.50000000  0.24673360  0.22342531  1
  C  C95  1  0.50000000  0.26122093  0.55808130  1
  C  C96  1  0.50000000  0.26091303  0.88910538  1
  C  C97  1  0.50000000  0.30483173  0.22368043  1
  C  C98  1  0.50000000  0.32005483  0.55733938  1
  C  C99  1  0.50000000  0.31966231  0.88727058  1
  C  C100  1  0.50000000  0.38049038  0.56142109  1
  C  C101  1  0.50000000  0.38004630  0.88436584  1
  C  C102  1  0.50000000  0.44013536  0.56023117  1
  C  C103  1  0.50000000  0.44003082  0.88488237  1
  C  C104  1  0.50000000  0.50000001  0.55987114  1
  C  C105  1  0.50000000  0.50000000  0.88520442  1
  C  C106  1  0.50000000  0.55986466  0.56023117  1
  C  C107  1  0.50000000  0.55996919  0.88488237  1
  C  C108  1  0.50000000  0.61950964  0.56142111  1
  C  C109  1  0.50000000  0.61995372  0.88436585  1
  C  C110  1  0.50000000  0.69516828  0.22368043  1
  C  C111  1  0.50000000  0.67994519  0.55733938  1
  C  C112  1  0.50000000  0.68033771  0.88727058  1
  C  C113  1  0.50000000  0.75326641  0.22342531  1
  C  C114  1  0.50000000  0.73877908  0.55808129  1
  C  C115  1  0.50000000  0.73908701  0.88910538  1
  C  C116  1  0.50000000  0.24677741  0.27663453  1
  C  C117  1  0.50000000  0.26087594  0.61097813  1
  C  C118  1  0.50000000  0.26123260  0.94197338  1
  C  C119  1  0.50000000  0.30487661  0.27614557  1
  C  C120  1  0.50000000  0.31963492  0.61282284  1
  C  C121  1  0.50000000  0.32007796  0.94273953  1
  C  C122  1  0.50000000  0.38003486  0.61562985  1
  C  C123  1  0.50000000  0.38051279  0.93855105  1
  C  C124  1  0.50000000  0.44001507  0.61506877  1
  C  C125  1  0.50000000  0.44017047  0.93970260  1
  C  C126  1  0.50000000  0.50000001  0.61474238  1
  C  C127  1  0.50000000  0.50000000  0.94007520  1
  C  C128  1  0.50000000  0.55998495  0.61506877  1
  C  C129  1  0.50000000  0.55982954  0.93970261  1
  C  C130  1  0.50000000  0.61996516  0.61562986  1
  C  C131  1  0.50000000  0.61948722  0.93855106  1
  C  C132  1  0.50000000  0.69512341  0.27614558  1
  C  C133  1  0.50000000  0.68036510  0.61282284  1
  C  C134  1  0.50000000  0.67992205  0.94273952  1
  C  C135  1  0.50000000  0.75322260  0.27663454  1
  C  C136  1  0.50000000  0.73912407  0.61097813  1
  C  C137  1  0.50000000  0.73876743  0.94197338  1
  H  H138  1  0.50000000  0.23307993  0.02982183  1
  H  H139  1  0.50000000  0.22638708  0.37994569  1
  H  H140  1  0.50000000  0.23683296  0.70453786  1
  H  H141  1  0.50000000  0.76692008  0.02982183  1
  H  H142  1  0.50000000  0.77361293  0.37994568  1
  H  H143  1  0.50000000  0.76316706  0.70453786  1
  H  H144  1  0.50000000  0.22629616  0.11977154  1
  H  H145  1  0.50000000  0.23302743  0.47005559  1
  H  H146  1  0.50000000  0.23688010  0.79583075  1
  H  H147  1  0.50000000  0.77370385  0.11977155  1
  H  H148  1  0.50000000  0.76697258  0.47005559  1
  H  H149  1  0.50000000  0.76311992  0.79583076  1
  H  H150  1  0.50000000  0.22325242  0.20381157  1
  H  H151  1  0.50000000  0.23751861  0.53928872  1
  H  H152  1  0.50000000  0.23719122  0.87029839  1
  H  H153  1  0.50000000  0.77674759  0.20381158  1
  H  H154  1  0.50000000  0.76248141  0.53928872  1
  H  H155  1  0.50000000  0.76280881  0.87029839  1
  H  H156  1  0.50000000  0.22327527  0.29622573  1
  H  H157  1  0.50000000  0.23716385  0.62985126  1
  H  H158  1  0.50000000  0.23747185  0.96058525  1
  H  H159  1  0.50000000  0.77672474  0.29622574  1
  H  H160  1  0.50000000  0.76283618  0.62985125  1
  H  H161  1  0.50000000  0.76252818  0.96058526  1
  H  H162  1  0.50000000  0.35432524  0.00551656  1
  H  H163  1  0.50000000  0.40966436  0.00673152  1
  H  H164  1  0.50000000  0.46983883  0.00745783  1
  H  H165  1  0.50000000  0.53016119  0.00745784  1
  H  H166  1  0.50000000  0.59033565  0.00673152  1
  H  H167  1  0.50000000  0.64567477  0.00551655  1
  H  H168  1  0.50000000  0.33762463  0.05225008  1
  H  H169  1  0.50000000  0.33083076  0.36237678  1
  H  H170  1  0.50000000  0.66237537  0.05225011  1
  H  H171  1  0.50000000  0.66916925  0.36237679  1
  H  H172  1  0.50000000  0.33072434  0.13786808  1
  H  H173  1  0.50000000  0.33765018  0.44768335  1
  H  H174  1  0.50000000  0.66927567  0.13786808  1
  H  H175  1  0.50000000  0.66234983  0.44768336  1
  H  H176  1  0.50000000  0.35421530  0.49447555  1
  H  H177  1  0.50000000  0.40955343  0.49311950  1
  H  H178  1  0.50000000  0.46977986  0.49250044  1
  H  H179  1  0.50000000  0.53022015  0.49250044  1
  H  H180  1  0.50000000  0.59044659  0.49311948  1
  H  H181  1  0.50000000  0.64578472  0.49447554  1
  H  H182  1  0.50000000  0.32855863  0.20503711  1
  H  H183  1  0.50000000  0.67144138  0.20503710  1
  H  H184  1  0.50000000  0.32868310  0.29450851  1
  H  H185  1  0.50000000  0.67131691  0.29450851  1
