# generated using pymatgen
data_H16C63
_symmetry_space_group_name_H-M   'P 1'
_cell_length_a   20.00000000
_cell_length_b   40.19450000
_cell_length_c   25.84819955
_cell_angle_alpha   90.00000000
_cell_angle_beta   90.00000000
_cell_angle_gamma   90.00000000
_symmetry_Int_Tables_number   1
_chemical_formula_structural   H16C63
_chemical_formula_sum   'H32 C126'
_cell_volume   20779.10913708
_cell_formula_units_Z   2
loop_
 _symmetry_equiv_pos_site_id
 _symmetry_equiv_pos_as_xyz
  1  'x, y, z'
loop_
 _atom_site_type_symbol
 _atom_site_label
 _atom_site_symmetry_multiplicity
 _atom_site_fract_x
 _atom_site_fract_y
 _atom_site_fract_z
 _atom_site_occupancy
  C  C0  1  0.50000000  0.28577546  0.10989452  1
  C  C1  1  0.50000000  0.28566330  0.61021648  1
  C  C2  1  0.50000000  0.28575218  0.27651255  1
  C  C3  1  0.50000000  0.28589873  0.77684125  1
  C  C4  1  0.50000000  0.28549779  0.44334368  1
  C  C5  1  0.50000000  0.28571169  0.94321282  1
  C  C6  1  0.50000000  0.31579072  0.13836810  1
  C  C7  1  0.50000000  0.31565666  0.63871273  1
  C  C8  1  0.50000000  0.31563470  0.30517086  1
  C  C9  1  0.50000000  0.31580333  0.80526353  1
  C  C10  1  0.50000000  0.31540260  0.47206761  1
  C  C11  1  0.50000000  0.31564988  0.97176983  1
  C  C12  1  0.50000000  0.28565955  0.05650839  1
  C  C13  1  0.50000000  0.28559296  0.55684505  1
  C  C14  1  0.50000000  0.28581242  0.22308517  1
  C  C15  1  0.50000000  0.28585203  0.72338740  1
  C  C16  1  0.50000000  0.28559036  0.38995289  1
  C  C17  1  0.50000000  0.28579401  0.88981863  1
  C  C18  1  0.50000000  0.34634406  0.11086033  1
  C  C19  1  0.50000000  0.34626315  0.61114022  1
  C  C20  1  0.50000000  0.34625910  0.27767946  1
  C  C21  1  0.50000000  0.34651571  0.77773685  1
  C  C22  1  0.50000000  0.34603102  0.44455326  1
  C  C23  1  0.50000000  0.34629349  0.94420188  1
  C  C24  1  0.50000000  0.37734966  0.13870159  1
  C  C25  1  0.50000000  0.37728151  0.63890504  1
  C  C26  1  0.50000000  0.37716359  0.30567204  1
  C  C27  1  0.50000000  0.37736758  0.80543422  1
  C  C28  1  0.50000000  0.37684671  0.47259343  1
  C  C29  1  0.50000000  0.37722296  0.97197894  1
  C  C30  1  0.50000000  0.31561846  0.02787266  1
  C  C31  1  0.50000000  0.31548160  0.52818350  1
  C  C32  1  0.50000000  0.31575695  0.19457680  1
  C  C33  1  0.50000000  0.31571620  0.69480983  1
  C  C34  1  0.50000000  0.31557380  0.36139794  1
  C  C35  1  0.50000000  0.31578649  0.86133675  1
  C  C36  1  0.50000000  0.34627094  0.05535525  1
  C  C37  1  0.50000000  0.34613325  0.55569872  1
  C  C38  1  0.50000000  0.34634239  0.22214436  1
  C  C39  1  0.50000000  0.34647467  0.72222422  1
  C  C40  1  0.50000000  0.34609563  0.38901809  1
  C  C41  1  0.50000000  0.34640145  0.88877425  1
  C  C42  1  0.50000000  0.40794464  0.11107143  1
  C  C43  1  0.50000000  0.40776917  0.61137290  1
  C  C44  1  0.50000000  0.40777903  0.27816257  1
  C  C45  1  0.50000000  0.40798668  0.77771600  1
  C  C46  1  0.50000000  0.40760142  0.44535334  1
  C  C47  1  0.50000000  0.40781080  0.94402952  1
  C  C48  1  0.50000000  0.43777012  0.13981485  1
  C  C49  1  0.50000000  0.43870466  0.63887482  1
  C  C50  1  0.50000000  0.43760334  0.30688626  1
  C  C51  1  0.50000000  0.43872342  0.80531370  1
  C  C52  1  0.50000000  0.43722496  0.47366595  1
  C  C53  1  0.50000000  0.43834334  0.97191300  1
  C  C54  1  0.50000000  0.37707468  0.02726275  1
  C  C55  1  0.50000000  0.37703714  0.52786348  1
  C  C56  1  0.50000000  0.37729221  0.19425005  1
  C  C57  1  0.50000000  0.37730627  0.69438101  1
  C  C58  1  0.50000000  0.37710822  0.36121577  1
  C  C59  1  0.50000000  0.37736880  0.86089026  1
  C  C60  1  0.50000000  0.40786565  0.05455009  1
  C  C61  1  0.50000000  0.40767511  0.55567068  1
  C  C62  1  0.50000000  0.40784467  0.22192745  1
  C  C63  1  0.50000000  0.40797073  0.72199397  1
  C  C64  1  0.50000000  0.40765739  0.38894995  1
  C  C65  1  0.50000000  0.40785913  0.88833027  1
  C  C66  1  0.50000000  0.46943242  0.61135052  1
  C  C67  1  0.50000000  0.46945475  0.77746088  1
  C  C68  1  0.50000000  0.46987875  0.94388640  1
  C  C69  1  0.50000000  0.50020031  0.63912192  1
  C  C70  1  0.50000000  0.50019639  0.80484775  1
  C  C71  1  0.50000000  0.50025858  0.96939670  1
  C  C72  1  0.50000000  0.43744708  0.02600809  1
  C  C73  1  0.50000000  0.43821778  0.52773494  1
  C  C74  1  0.50000000  0.43772399  0.19330762  1
  C  C75  1  0.50000000  0.43870724  0.69431248  1
  C  C76  1  0.50000000  0.43753118  0.36037593  1
  C  C77  1  0.50000000  0.43874540  0.86072798  1
  C  C78  1  0.50000000  0.46979579  0.55564654  1
  C  C79  1  0.50000000  0.46947282  0.72207947  1
  C  C80  1  0.50000000  0.46947866  0.88817297  1
  C  C81  1  0.50000000  0.53097308  0.61208367  1
  C  C82  1  0.50000000  0.53098513  0.77739719  1
  C  C83  1  0.50000000  0.53106831  0.94292949  1
  C  C84  1  0.50000000  0.56177232  0.63934598  1
  C  C85  1  0.50000000  0.56176208  0.80475994  1
  C  C86  1  0.50000000  0.56135096  0.96972293  1
  C  C87  1  0.50000000  0.50016210  0.53003005  1
  C  C88  1  0.50000000  0.50020638  0.69460975  1
  C  C89  1  0.50000000  0.50019823  0.86031252  1
  C  C90  1  0.50000000  0.53105818  0.55641024  1
  C  C91  1  0.50000000  0.53099858  0.72202606  1
  C  C92  1  0.50000000  0.53095875  0.88729453  1
  C  C93  1  0.50000000  0.59243984  0.61171933  1
  C  C94  1  0.50000000  0.59262552  0.77745000  1
  C  C95  1  0.50000000  0.59215144  0.94359885  1
  C  C96  1  0.50000000  0.62317034  0.63891232  1
  C  C97  1  0.50000000  0.62317401  0.80504545  1
  C  C98  1  0.50000000  0.62253341  0.97045727  1
  C  C99  1  0.50000000  0.56140219  0.52963397  1
  C  C100  1  0.50000000  0.56177824  0.69462946  1
  C  C101  1  0.50000000  0.56172633  0.86002632  1
  C  C102  1  0.50000000  0.59226225  0.55575082  1
  C  C103  1  0.50000000  0.59263510  0.72193826  1
  C  C104  1  0.50000000  0.59235311  0.88767354  1
  C  C105  1  0.50000000  0.65387453  0.61101778  1
  C  C106  1  0.50000000  0.65411410  0.77755590  1
  C  C107  1  0.50000000  0.65326820  0.94439582  1
  C  C108  1  0.50000000  0.68494062  0.63788186  1
  C  C109  1  0.50000000  0.68480439  0.80534818  1
  C  C110  1  0.50000000  0.68389638  0.97184676  1
  C  C111  1  0.50000000  0.62275157  0.52902812  1
  C  C112  1  0.50000000  0.62320481  0.69441718  1
  C  C113  1  0.50000000  0.62308647  0.86056559  1
  C  C114  1  0.50000000  0.65347308  0.55521885  1
  C  C115  1  0.50000000  0.65412881  0.72197022  1
  C  C116  1  0.50000000  0.65373339  0.88857496  1
  C  C117  1  0.50000000  0.71453892  0.60890214  1
  C  C118  1  0.50000000  0.71455030  0.77668462  1
  C  C119  1  0.50000000  0.71382698  0.94521859  1
  C  C120  1  0.50000000  0.68418320  0.52793572  1
  C  C121  1  0.50000000  0.68486608  0.69430707  1
  C  C122  1  0.50000000  0.68480155  0.86176814  1
  C  C123  1  0.50000000  0.71411545  0.55457319  1
  C  C124  1  0.50000000  0.71457065  0.72309240  1
  C  C125  1  0.50000000  0.71431946  0.89090896  1
  H  H126  1  0.50000000  0.26189660  0.13013421  1
  H  H127  1  0.50000000  0.26165510  0.63014578  1
  H  H128  1  0.50000000  0.26174132  0.29635533  1
  H  H129  1  0.50000000  0.26195100  0.79688563  1
  H  H130  1  0.50000000  0.26143889  0.46303480  1
  H  H131  1  0.50000000  0.26176119  0.96327350  1
  H  H132  1  0.50000000  0.26163778  0.03665182  1
  H  H133  1  0.50000000  0.26159950  0.53696500  1
  H  H134  1  0.50000000  0.26184234  0.20310994  1
  H  H135  1  0.50000000  0.26182961  0.70357045  1
  H  H136  1  0.50000000  0.26162517  0.36993751  1
  H  H137  1  0.50000000  0.26185607  0.86975367  1
  H  H138  1  0.50000000  0.73860144  0.62867240  1
  H  H139  1  0.50000000  0.73851166  0.79668870  1
  H  H140  1  0.50000000  0.73750032  0.96627021  1
  H  H141  1  0.50000000  0.73771576  0.53326112  1
  H  H142  1  0.50000000  0.73856892  0.70321007  1
  H  H143  1  0.50000000  0.73847593  0.87146843  1
  H  H144  1  0.50000000  0.68380256  0.48554421  1
  H  H145  1  0.50000000  0.62272659  0.48659420  1
  H  H146  1  0.50000000  0.56121677  0.01212964  1
  H  H147  1  0.50000000  0.62226245  0.01288354  1
  H  H148  1  0.50000000  0.56133135  0.48720338  1
  H  H149  1  0.50000000  0.68335194  0.01426687  1
  H  H150  1  0.50000000  0.50149791  0.01164741  1
  H  H151  1  0.50000000  0.50119363  0.48774658  1
  H  H152  1  0.50000000  0.46183015  0.12009785  1
  H  H153  1  0.50000000  0.46161276  0.28707188  1
  H  H154  1  0.50000000  0.46063174  0.45246000  1
  H  H155  1  0.50000000  0.46101227  0.04678111  1
  H  H156  1  0.50000000  0.46168501  0.21325959  1
  H  H157  1  0.50000000  0.46152230  0.38026901  1
