# generated using pymatgen
data_H4C15
_symmetry_space_group_name_H-M   'P 1'
_cell_length_a   20.00000000
_cell_length_b   37.22700000
_cell_length_c   26.05344929
_cell_angle_alpha   90.00000000
_cell_angle_beta   90.00000000
_cell_angle_gamma   90.00000000
_symmetry_Int_Tables_number   1
_chemical_formula_structural   H4C15
_chemical_formula_sum   'H32 C120'
_cell_volume   19397.83513627
_cell_formula_units_Z   8
loop_
 _symmetry_equiv_pos_site_id
 _symmetry_equiv_pos_as_xyz
  1  'x, y, z'
loop_
 _atom_site_type_symbol
 _atom_site_label
 _atom_site_symmetry_multiplicity
 _atom_site_fract_x
 _atom_site_fract_y
 _atom_site_fract_z
 _atom_site_occupancy
  C  C0  1  0.50000000  0.31743209  0.55698769  1
  C  C1  1  0.50000000  0.31788488  0.88685392  1
  C  C2  1  0.50000000  0.38406834  0.55743019  1
  C  C3  1  0.50000000  0.38474140  0.88715864  1
  C  C4  1  0.50000000  0.44611303  0.22174228  1
  C  C5  1  0.50000000  0.45121420  0.55675279  1
  C  C6  1  0.50000000  0.45129018  0.88809806  1
  C  C7  1  0.50000000  0.51222489  0.22254261  1
  C  C8  1  0.50000000  0.51801354  0.55524256  1
  C  C9  1  0.50000000  0.51775001  0.88888170  1
  C  C10  1  0.50000000  0.57787724  0.22374586  1
  C  C11  1  0.50000000  0.58461860  0.55651644  1
  C  C12  1  0.50000000  0.58408257  0.88767645  1
  C  C13  1  0.50000000  0.65144309  0.56080768  1
  C  C14  1  0.50000000  0.65114515  0.88503419  1
  C  C15  1  0.50000000  0.71658154  0.55868108  1
  C  C16  1  0.50000000  0.71668758  0.88775860  1
  C  C17  1  0.50000000  0.31790163  0.61310378  1
  C  C18  1  0.50000000  0.31741146  0.94303573  1
  C  C19  1  0.50000000  0.38475030  0.61278954  1
  C  C20  1  0.50000000  0.38405556  0.94252499  1
  C  C21  1  0.50000000  0.44610625  0.27823049  1
  C  C22  1  0.50000000  0.45128563  0.61183478  1
  C  C23  1  0.50000000  0.45121168  0.94318009  1
  C  C24  1  0.50000000  0.51221003  0.27742042  1
  C  C25  1  0.50000000  0.51774280  0.61105311  1
  C  C26  1  0.50000000  0.51801200  0.94472368  1
  C  C27  1  0.50000000  0.57785267  0.27632723  1
  C  C28  1  0.50000000  0.58408395  0.61226227  1
  C  C29  1  0.50000000  0.58459256  0.94340691  1
  C  C30  1  0.50000000  0.65112697  0.61493734  1
  C  C31  1  0.50000000  0.65141688  0.93918274  1
  C  C32  1  0.50000000  0.71668183  0.61239775  1
  C  C33  1  0.50000000  0.71650057  0.94147480  1
  C  C34  1  0.50000000  0.28577410  0.64120384  1
  C  C35  1  0.50000000  0.28666147  0.97247599  1
  C  C36  1  0.50000000  0.35125025  0.64006602  1
  C  C37  1  0.50000000  0.35145115  0.96803535  1
  C  C38  1  0.50000000  0.41431833  0.30821359  1
  C  C39  1  0.50000000  0.41789373  0.63961680  1
  C  C40  1  0.50000000  0.41791227  0.97063129  1
  C  C41  1  0.50000000  0.47924323  0.30592307  1
  C  C42  1  0.50000000  0.48464447  0.63900596  1
  C  C43  1  0.50000000  0.48407390  0.97176488  1
  C  C44  1  0.50000000  0.54530586  0.30411653  1
  C  C45  1  0.50000000  0.55083693  0.63939754  1
  C  C46  1  0.50000000  0.55094276  0.97300850  1
  C  C47  1  0.50000000  0.61716192  0.64053919  1
  C  C48  1  0.50000000  0.61867033  0.96527273  1
  C  C49  1  0.50000000  0.68457824  0.64091768  1
  C  C50  1  0.50000000  0.68397751  0.96728191  1
  C  C51  1  0.50000000  0.28591269  0.69422293  1
  C  C52  1  0.50000000  0.35144564  0.69501595  1
  C  C53  1  0.50000000  0.41798849  0.02428549  1
  C  C54  1  0.50000000  0.41509790  0.36154419  1
  C  C55  1  0.50000000  0.41803091  0.69499176  1
  C  C56  1  0.50000000  0.48291324  0.02693150  1
  C  C57  1  0.50000000  0.48002203  0.36143616  1
  C  C58  1  0.50000000  0.48457458  0.69457186  1
  C  C59  1  0.50000000  0.54933758  0.02907485  1
  C  C60  1  0.50000000  0.54560101  0.35913018  1
  C  C61  1  0.50000000  0.55076692  0.69456497  1
  C  C62  1  0.50000000  0.61698866  0.69535684  1
  C  C63  1  0.50000000  0.68405264  0.69609654  1
  C  C64  1  0.50000000  0.31829454  0.72220234  1
  C  C65  1  0.50000000  0.38496751  0.72248091  1
  C  C66  1  0.50000000  0.44923279  0.05378997  1
  C  C67  1  0.50000000  0.44758600  0.38999081  1
  C  C68  1  0.50000000  0.45130305  0.72239607  1
  C  C69  1  0.50000000  0.51548920  0.05574681  1
  C  C70  1  0.50000000  0.51373416  0.38863663  1
  C  C71  1  0.50000000  0.51750397  0.72223447  1
  C  C72  1  0.50000000  0.57969509  0.06220027  1
  C  C73  1  0.50000000  0.57825279  0.38556123  1
  C  C74  1  0.50000000  0.58387375  0.72234378  1
  C  C75  1  0.50000000  0.65062211  0.72263384  1
  C  C76  1  0.50000000  0.71646736  0.72366826  1
  C  C77  1  0.50000000  0.31828267  0.77774647  1
  C  C78  1  0.50000000  0.38496748  0.77746882  1
  C  C79  1  0.50000000  0.44757297  0.10998708  1
  C  C80  1  0.50000000  0.44921600  0.44616959  1
  C  C81  1  0.50000000  0.45130456  0.77755217  1
  C  C82  1  0.50000000  0.51372632  0.11132203  1
  C  C83  1  0.50000000  0.51546404  0.44420037  1
  C  C84  1  0.50000000  0.51750047  0.77770446  1
  C  C85  1  0.50000000  0.57823909  0.11448244  1
  C  C86  1  0.50000000  0.57963337  0.43783545  1
  C  C87  1  0.50000000  0.58388269  0.77758135  1
  C  C88  1  0.50000000  0.65064682  0.77737317  1
  C  C89  1  0.50000000  0.71648298  0.77628341  1
  C  C90  1  0.50000000  0.28588329  0.80570641  1
  C  C91  1  0.50000000  0.35144568  0.80492058  1
  C  C92  1  0.50000000  0.41507784  0.13846360  1
  C  C93  1  0.50000000  0.41798786  0.47571521  1
  C  C94  1  0.50000000  0.41804495  0.80493966  1
  C  C95  1  0.50000000  0.48001618  0.13853615  1
  C  C96  1  0.50000000  0.48289109  0.47301669  1
  C  C97  1  0.50000000  0.48456544  0.80536009  1
  C  C98  1  0.50000000  0.54558242  0.14085721  1
  C  C99  1  0.50000000  0.54928581  0.47090577  1
  C  C100  1  0.50000000  0.55076362  0.80535709  1
  C  C101  1  0.50000000  0.61700573  0.80461150  1
  C  C102  1  0.50000000  0.68409152  0.80390817  1
  C  C103  1  0.50000000  0.28668765  0.52755724  1
  C  C104  1  0.50000000  0.28573811  0.85871685  1
  C  C105  1  0.50000000  0.35146761  0.53192845  1
  C  C106  1  0.50000000  0.35124652  0.85987895  1
  C  C107  1  0.50000000  0.41431233  0.19179472  1
  C  C108  1  0.50000000  0.41792593  0.52933882  1
  C  C109  1  0.50000000  0.41789666  0.86032764  1
  C  C110  1  0.50000000  0.47924997  0.19404377  1
  C  C111  1  0.50000000  0.48406809  0.52819160  1
  C  C112  1  0.50000000  0.48464505  0.86093835  1
  C  C113  1  0.50000000  0.54533806  0.19588492  1
  C  C114  1  0.50000000  0.55094288  0.52696096  1
  C  C115  1  0.50000000  0.55084354  0.86051815  1
  C  C116  1  0.50000000  0.61871121  0.53464188  1
  C  C117  1  0.50000000  0.61717375  0.85943199  1
  C  C118  1  0.50000000  0.68406281  0.53285238  1
  C  C119  1  0.50000000  0.68462750  0.85910309  1
  H  H120  1  0.50000000  0.74209791  0.53766208  1
  H  H121  1  0.50000000  0.74268510  0.86831037  1
  H  H122  1  0.50000000  0.74257600  0.63214050  1
  H  H123  1  0.50000000  0.74200504  0.96251945  1
  H  H124  1  0.50000000  0.25998693  0.62110448  1
  H  H125  1  0.50000000  0.25962970  0.95614768  1
  H  H126  1  0.50000000  0.26014653  0.71421912  1
  H  H127  1  0.50000000  0.74214244  0.70347155  1
  H  H128  1  0.50000000  0.74216425  0.79644974  1
  H  H129  1  0.50000000  0.26018618  0.78548818  1
  H  H130  1  0.50000000  0.25962104  0.54372953  1
  H  H131  1  0.50000000  0.25999996  0.87896848  1
  H  H132  1  0.50000000  0.60377115  0.20415238  1
  H  H133  1  0.50000000  0.60367736  0.29611225  1
  H  H134  1  0.50000000  0.28887614  0.01443829  1
  H  H135  1  0.50000000  0.35056069  0.00996468  1
  H  H136  1  0.50000000  0.38800004  0.28946855  1
  H  H137  1  0.50000000  0.62335995  0.00558880  1
  H  H138  1  0.50000000  0.68291715  0.00935343  1
  H  H139  1  0.50000000  0.39232730  0.04436224  1
  H  H140  1  0.50000000  0.38929440  0.38163866  1
  H  H141  1  0.50000000  0.60687968  0.04923207  1
  H  H142  1  0.50000000  0.60384571  0.36520285  1
  H  H143  1  0.50000000  0.60373742  0.13508981  1
  H  H144  1  0.50000000  0.60677012  0.45095242  1
  H  H145  1  0.50000000  0.38923125  0.11847717  1
  H  H146  1  0.50000000  0.39227222  0.45583195  1
  H  H147  1  0.50000000  0.28890340  0.48563377  1
  H  H148  1  0.50000000  0.35056877  0.49000626  1
  H  H149  1  0.50000000  0.38802401  0.21065507  1
  H  H150  1  0.50000000  0.62344884  0.49430684  1
  H  H151  1  0.50000000  0.68301660  0.49081983  1
