# generated using pymatgen
data_H4C15
_symmetry_space_group_name_H-M   'P 1'
_cell_length_a   20.00000000
_cell_length_b   37.22700000
_cell_length_c   26.05227705
_cell_angle_alpha   90.00000000
_cell_angle_beta   90.00000000
_cell_angle_gamma   90.00000000
_symmetry_Int_Tables_number   1
_chemical_formula_structural   H4C15
_chemical_formula_sum   'H32 C120'
_cell_volume   19396.96235614
_cell_formula_units_Z   8
loop_
 _symmetry_equiv_pos_site_id
 _symmetry_equiv_pos_as_xyz
  1  'x, y, z'
loop_
 _atom_site_type_symbol
 _atom_site_label
 _atom_site_symmetry_multiplicity
 _atom_site_fract_x
 _atom_site_fract_y
 _atom_site_fract_z
 _atom_site_occupancy
  C  C0  1  0.50000000  0.31555498  0.55546296  1
  C  C1  1  0.50000000  0.31526977  0.88780579  1
  C  C2  1  0.50000000  0.38212350  0.55831981  1
  C  C3  1  0.50000000  0.38197561  0.88612217  1
  C  C4  1  0.50000000  0.44782865  0.56077169  1
  C  C5  1  0.50000000  0.44816230  0.88484724  1
  C  C6  1  0.50000000  0.52252405  0.22381301  1
  C  C7  1  0.50000000  0.51462941  0.55620536  1
  C  C8  1  0.50000000  0.51499030  0.88795718  1
  C  C9  1  0.50000000  0.58804874  0.22262747  1
  C  C10  1  0.50000000  0.58125660  0.55509298  1
  C  C11  1  0.50000000  0.58126452  0.88885699  1
  C  C12  1  0.50000000  0.65407946  0.22171576  1
  C  C13  1  0.50000000  0.64796952  0.55701401  1
  C  C14  1  0.50000000  0.64772100  0.88785272  1
  C  C15  1  0.50000000  0.71400608  0.55882471  1
  C  C16  1  0.50000000  0.71349628  0.88849987  1
  C  C17  1  0.50000000  0.31529628  0.61205707  1
  C  C18  1  0.50000000  0.31552924  0.94437785  1
  C  C19  1  0.50000000  0.38197558  0.61377341  1
  C  C20  1  0.50000000  0.38213464  0.94157522  1
  C  C21  1  0.50000000  0.44817905  0.61510958  1
  C  C22  1  0.50000000  0.44781937  0.93921425  1
  C  C23  1  0.50000000  0.52253740  0.27644637  1
  C  C24  1  0.50000000  0.51499657  0.61198408  1
  C  C25  1  0.50000000  0.51462644  0.94372755  1
  C  C26  1  0.50000000  0.58806233  0.27750845  1
  C  C27  1  0.50000000  0.58127015  0.61111640  1
  C  C28  1  0.50000000  0.58121193  0.94491465  1
  C  C29  1  0.50000000  0.65410179  0.27837456  1
  C  C30  1  0.50000000  0.64772597  0.61209372  1
  C  C31  1  0.50000000  0.64791757  0.94294711  1
  C  C32  1  0.50000000  0.71352484  0.61150259  1
  C  C33  1  0.50000000  0.71391965  0.94114800  1
  C  C34  1  0.50000000  0.28314252  0.64006862  1
  C  C35  1  0.50000000  0.28473223  0.97415753  1
  C  C36  1  0.50000000  0.34833160  0.64001367  1
  C  C37  1  0.50000000  0.34965065  0.96881721  1
  C  C38  1  0.50000000  0.41472199  0.64142520  1
  C  C39  1  0.50000000  0.41543426  0.96680138  1
  C  C40  1  0.50000000  0.48188233  0.64042771  1
  C  C41  1  0.50000000  0.48050123  0.96564468  1
  C  C42  1  0.50000000  0.55503059  0.30412123  1
  C  C43  1  0.50000000  0.54817759  0.63921678  1
  C  C44  1  0.50000000  0.54849661  0.97313550  1
  C  C45  1  0.50000000  0.62101946  0.30600388  1
  C  C46  1  0.50000000  0.61411624  0.63926157  1
  C  C47  1  0.50000000  0.61533742  0.97182285  1
  C  C48  1  0.50000000  0.68583049  0.30821494  1
  C  C49  1  0.50000000  0.68069038  0.63950903  1
  C  C50  1  0.50000000  0.68142872  0.96978033  1
  C  C51  1  0.50000000  0.28298123  0.69338543  1
  C  C52  1  0.50000000  0.34829502  0.69500467  1
  C  C53  1  0.50000000  0.41488176  0.69608627  1
  C  C54  1  0.50000000  0.48190546  0.69544669  1
  C  C55  1  0.50000000  0.55059511  0.02937974  1
  C  C56  1  0.50000000  0.55472304  0.35928195  1
  C  C57  1  0.50000000  0.54817445  0.69455916  1
  C  C58  1  0.50000000  0.61715279  0.02688235  1
  C  C59  1  0.50000000  0.62029054  0.36151477  1
  C  C60  1  0.50000000  0.61413173  0.69450450  1
  C  C61  1  0.50000000  0.68225799  0.02388723  1
  C  C62  1  0.50000000  0.68515313  0.36165543  1
  C  C63  1  0.50000000  0.68059048  0.69505054  1
  C  C64  1  0.50000000  0.31502046  0.72205078  1
  C  C65  1  0.50000000  0.38164316  0.72261410  1
  C  C66  1  0.50000000  0.44848903  0.72265098  1
  C  C67  1  0.50000000  0.52034635  0.06246023  1
  C  C68  1  0.50000000  0.52198572  0.38541448  1
  C  C69  1  0.50000000  0.51502078  0.72246635  1
  C  C70  1  0.50000000  0.58460743  0.05577726  1
  C  C71  1  0.50000000  0.58651060  0.38868638  1
  C  C72  1  0.50000000  0.58113861  0.72225530  1
  C  C73  1  0.50000000  0.65123463  0.05356541  1
  C  C74  1  0.50000000  0.65273432  0.38996768  1
  C  C75  1  0.50000000  0.64739524  0.72231852  1
  C  C76  1  0.50000000  0.71294312  0.72349671  1
  C  C77  1  0.50000000  0.31501745  0.77783321  1
  C  C78  1  0.50000000  0.38163843  0.77728437  1
  C  C79  1  0.50000000  0.44848886  0.77727115  1
  C  C80  1  0.50000000  0.52196473  0.11477258  1
  C  C81  1  0.50000000  0.52044969  0.43770884  1
  C  C82  1  0.50000000  0.51502179  0.77748052  1
  C  C83  1  0.50000000  0.58647637  0.11140649  1
  C  C84  1  0.50000000  0.58468090  0.44428091  1
  C  C85  1  0.50000000  0.58114073  0.77768509  1
  C  C86  1  0.50000000  0.65272591  0.11011583  1
  C  C87  1  0.50000000  0.65125437  0.44648506  1
  C  C88  1  0.50000000  0.64740323  0.77761966  1
  C  C89  1  0.50000000  0.71296682  0.77638735  1
  C  C90  1  0.50000000  0.28299160  0.80648988  1
  C  C91  1  0.50000000  0.34828675  0.80488910  1
  C  C92  1  0.50000000  0.41487573  0.80381844  1
  C  C93  1  0.50000000  0.48190510  0.80450426  1
  C  C94  1  0.50000000  0.55470741  0.14087440  1
  C  C95  1  0.50000000  0.55070743  0.47069057  1
  C  C96  1  0.50000000  0.54817902  0.80538562  1
  C  C97  1  0.50000000  0.62027202  0.13856791  1
  C  C98  1  0.50000000  0.61720086  0.47315478  1
  C  C99  1  0.50000000  0.61413996  0.80543542  1
  C  C100  1  0.50000000  0.68514573  0.13845807  1
  C  C101  1  0.50000000  0.68229858  0.47608228  1
  C  C102  1  0.50000000  0.68061554  0.80486642  1
  C  C103  1  0.50000000  0.28468352  0.52583094  1
  C  C104  1  0.50000000  0.28312249  0.85977795  1
  C  C105  1  0.50000000  0.34966362  0.53098054  1
  C  C106  1  0.50000000  0.34832398  0.85988057  1
  C  C107  1  0.50000000  0.41545099  0.53320457  1
  C  C108  1  0.50000000  0.41472011  0.85849232  1
  C  C109  1  0.50000000  0.48049938  0.53428194  1
  C  C110  1  0.50000000  0.48187461  0.85952704  1
  C  C111  1  0.50000000  0.55500051  0.19605968  1
  C  C112  1  0.50000000  0.54854735  0.52688645  1
  C  C113  1  0.50000000  0.54818091  0.86073084  1
  C  C114  1  0.50000000  0.62099459  0.19409243  1
  C  C115  1  0.50000000  0.61538404  0.52818420  1
  C  C116  1  0.50000000  0.61410904  0.86068335  1
  C  C117  1  0.50000000  0.68580846  0.19190475  1
  C  C118  1  0.50000000  0.68150183  0.53019568  1
  C  C119  1  0.50000000  0.68070158  0.86041127  1
  H  H120  1  0.50000000  0.73960599  0.53803376  1
  H  H121  1  0.50000000  0.73916338  0.86819014  1
  H  H122  1  0.50000000  0.73904469  0.63222659  1
  H  H123  1  0.50000000  0.73959949  0.96170235  1
  H  H124  1  0.50000000  0.25736319  0.61986953  1
  H  H125  1  0.50000000  0.25752575  0.95835958  1
  H  H126  1  0.50000000  0.25704599  0.71305970  1
  H  H127  1  0.50000000  0.73883739  0.70369775  1
  H  H128  1  0.50000000  0.73890681  0.79606343  1
  H  H129  1  0.50000000  0.25705064  0.78682421  1
  H  H130  1  0.50000000  0.25757416  0.54200006  1
  H  H131  1  0.50000000  0.25731522  0.87988595  1
  H  H132  1  0.50000000  0.49663471  0.20425221  1
  H  H133  1  0.50000000  0.49669433  0.29615538  1
  H  H134  1  0.50000000  0.28719254  0.01605810  1
  H  H135  1  0.50000000  0.35076237  0.01088564  1
  H  H136  1  0.50000000  0.41616470  0.00889625  1
  H  H137  1  0.50000000  0.47570870  0.00601081  1
  H  H138  1  0.50000000  0.71209909  0.28940319  1
  H  H139  1  0.50000000  0.70873973  0.04204683  1
  H  H140  1  0.50000000  0.71097840  0.38175658  1
  H  H141  1  0.50000000  0.49316854  0.04937546  1
  H  H142  1  0.50000000  0.49646703  0.36488531  1
  H  H143  1  0.50000000  0.49648553  0.13541669  1
  H  H144  1  0.50000000  0.49336625  0.45109624  1
  H  H145  1  0.50000000  0.71097646  0.11838228  1
  H  H146  1  0.50000000  0.70868040  0.45762658  1
  H  H147  1  0.50000000  0.28695841  0.48388366  1
  H  H148  1  0.50000000  0.35077158  0.48887750  1
  H  H149  1  0.50000000  0.41620078  0.49115168  1
  H  H150  1  0.50000000  0.47558318  0.49390149  1
  H  H151  1  0.50000000  0.71201638  0.21089586  1
