# generated using pymatgen
data_H16C63
_symmetry_space_group_name_H-M   'P 1'
_cell_length_a   20.00000000
_cell_length_b   40.19450000
_cell_length_c   26.07396432
_cell_angle_alpha   90.00000000
_cell_angle_beta   90.00000000
_cell_angle_gamma   90.00000000
_symmetry_Int_Tables_number   1
_chemical_formula_structural   H16C63
_chemical_formula_sum   'H32 C126'
_cell_volume   20960.59917369
_cell_formula_units_Z   2
loop_
 _symmetry_equiv_pos_site_id
 _symmetry_equiv_pos_as_xyz
  1  'x, y, z'
loop_
 _atom_site_type_symbol
 _atom_site_label
 _atom_site_symmetry_multiplicity
 _atom_site_fract_x
 _atom_site_fract_y
 _atom_site_fract_z
 _atom_site_occupancy
  C  C0  1  0.50000000  0.28399603  0.61243231  1
  C  C1  1  0.50000000  0.28427641  0.77636511  1
  C  C2  1  0.50000000  0.28418076  0.94158196  1
  C  C3  1  0.50000000  0.31369249  0.64084342  1
  C  C4  1  0.50000000  0.31415080  0.80401890  1
  C  C5  1  0.50000000  0.31420463  0.96748365  1
  C  C6  1  0.50000000  0.28411883  0.55869743  1
  C  C7  1  0.50000000  0.28430539  0.72367402  1
  C  C8  1  0.50000000  0.28397230  0.88784692  1
  C  C9  1  0.50000000  0.34470479  0.61480001  1
  C  C10  1  0.50000000  0.34519992  0.77744129  1
  C  C11  1  0.50000000  0.34444198  0.93946226  1
  C  C12  1  0.50000000  0.37609194  0.64044623  1
  C  C13  1  0.50000000  0.37624070  0.80468734  1
  C  C14  1  0.50000000  0.37476496  0.96543676  1
  C  C15  1  0.50000000  0.31413614  0.53277417  1
  C  C16  1  0.50000000  0.31419596  0.69607495  1
  C  C17  1  0.50000000  0.31362001  0.85927058  1
  C  C18  1  0.50000000  0.34444195  0.56062350  1
  C  C19  1  0.50000000  0.34522156  0.72265222  1
  C  C20  1  0.50000000  0.34465852  0.88527348  1
  C  C21  1  0.50000000  0.41230948  0.11449732  1
  C  C22  1  0.50000000  0.40673235  0.61227523  1
  C  C23  1  0.50000000  0.41268493  0.27630630  1
  C  C24  1  0.50000000  0.40691516  0.77761679  1
  C  C25  1  0.50000000  0.41095777  0.43784186  1
  C  C26  1  0.50000000  0.40633681  0.94338644  1
  C  C27  1  0.50000000  0.44250296  0.14073984  1
  C  C28  1  0.50000000  0.43760220  0.63940261  1
  C  C29  1  0.50000000  0.44277933  0.30397229  1
  C  C30  1  0.50000000  0.43764338  0.80527853  1
  C  C31  1  0.50000000  0.43901250  0.47085151  1
  C  C32  1  0.50000000  0.43750236  0.97280939  1
  C  C33  1  0.50000000  0.37474443  0.53455032  1
  C  C34  1  0.50000000  0.37626378  0.69536866  1
  C  C35  1  0.50000000  0.37606712  0.85961948  1
  C  C36  1  0.50000000  0.41090756  0.06217467  1
  C  C37  1  0.50000000  0.40633002  0.55659158  1
  C  C38  1  0.50000000  0.41266178  0.22366012  1
  C  C39  1  0.50000000  0.40693114  0.72239624  1
  C  C40  1  0.50000000  0.41232829  0.38551382  1
  C  C41  1  0.50000000  0.40673274  0.88773493  1
  C  C42  1  0.50000000  0.47195702  0.11128795  1
  C  C43  1  0.50000000  0.46812533  0.61122663  1
  C  C44  1  0.50000000  0.47337824  0.27738283  1
  C  C45  1  0.50000000  0.46826853  0.77769604  1
  C  C46  1  0.50000000  0.47033080  0.44426381  1
  C  C47  1  0.50000000  0.46791009  0.94473564  1
  C  C48  1  0.50000000  0.50320393  0.13849350  1
  C  C49  1  0.50000000  0.49883440  0.63919868  1
  C  C50  1  0.50000000  0.50392134  0.30591157  1
  C  C51  1  0.50000000  0.49892772  0.80531635  1
  C  C52  1  0.50000000  0.50053231  0.47309696  1
  C  C53  1  0.50000000  0.49942757  0.97170918  1
  C  C54  1  0.50000000  0.43896659  0.02913853  1
  C  C55  1  0.50000000  0.43751430  0.52718224  1
  C  C56  1  0.50000000  0.44274590  0.19594717  1
  C  C57  1  0.50000000  0.43765536  0.69472864  1
  C  C58  1  0.50000000  0.44251322  0.35919329  1
  C  C59  1  0.50000000  0.43759355  0.86058201  1
  C  C60  1  0.50000000  0.47030774  0.05567950  1
  C  C61  1  0.50000000  0.46792029  0.55526084  1
  C  C62  1  0.50000000  0.47335509  0.22250018  1
  C  C63  1  0.50000000  0.46825360  0.72235684  1
  C  C64  1  0.50000000  0.47197098  0.38865369  1
  C  C65  1  0.50000000  0.46811753  0.88876218  1
  C  C66  1  0.50000000  0.53323465  0.11002303  1
  C  C67  1  0.50000000  0.52968903  0.61212157  1
  C  C68  1  0.50000000  0.53457027  0.27830338  1
  C  C69  1  0.50000000  0.52963883  0.77764093  1
  C  C70  1  0.50000000  0.53175338  0.44635355  1
  C  C71  1  0.50000000  0.52980740  0.94318442  1
  C  C72  1  0.50000000  0.56327617  0.13834528  1
  C  C73  1  0.50000000  0.56039940  0.63976974  1
  C  C74  1  0.50000000  0.56393816  0.30820972  1
  C  C75  1  0.50000000  0.56041228  0.80505196  1
  C  C76  1  0.50000000  0.56062021  0.47581722  1
  C  C77  1  0.50000000  0.56056843  0.97034049  1
  C  C78  1  0.50000000  0.50052477  0.02684198  1
  C  C79  1  0.50000000  0.49942218  0.52824126  1
  C  C80  1  0.50000000  0.50389820  0.19399612  1
  C  C81  1  0.50000000  0.49890526  0.69468385  1
  C  C82  1  0.50000000  0.50321427  0.36142304  1
  C  C83  1  0.50000000  0.49882949  0.86075533  1
  C  C84  1  0.50000000  0.53174720  0.05357843  1
  C  C85  1  0.50000000  0.52979961  0.55674066  1
  C  C86  1  0.50000000  0.53454788  0.22159772  1
  C  C87  1  0.50000000  0.52963392  0.72231367  1
  C  C88  1  0.50000000  0.53323442  0.38991622  1
  C  C89  1  0.50000000  0.52969741  0.88781225  1
  C  C90  1  0.50000000  0.59147455  0.61277760  1
  C  C91  1  0.50000000  0.59129020  0.77755705  1
  C  C92  1  0.50000000  0.59190358  0.94227916  1
  C  C93  1  0.50000000  0.62213461  0.64023266  1
  C  C94  1  0.50000000  0.62201867  0.80459268  1
  C  C95  1  0.50000000  0.62227665  0.96775308  1
  C  C96  1  0.50000000  0.56063284  0.02414960  1
  C  C97  1  0.50000000  0.56056212  0.52959609  1
  C  C98  1  0.50000000  0.56392132  0.19174564  1
  C  C99  1  0.50000000  0.56040537  0.69488487  1
  C  C100  1  0.50000000  0.56327375  0.36161070  1
  C  C101  1  0.50000000  0.56041154  0.86017490  1
  C  C102  1  0.50000000  0.59188382  0.55764995  1
  C  C103  1  0.50000000  0.59128781  0.72236767  1
  C  C104  1  0.50000000  0.59149683  0.88714004  1
  C  C105  1  0.50000000  0.65300893  0.61305843  1
  C  C106  1  0.50000000  0.65301685  0.77738824  1
  C  C107  1  0.50000000  0.65293446  0.94164306  1
  C  C108  1  0.50000000  0.68407092  0.63949195  1
  C  C109  1  0.50000000  0.68387518  0.80456247  1
  C  C110  1  0.50000000  0.68335241  0.96902105  1
  C  C111  1  0.50000000  0.62223604  0.53214363  1
  C  C112  1  0.50000000  0.62200740  0.69527022  1
  C  C113  1  0.50000000  0.62213901  0.85964763  1
  C  C114  1  0.50000000  0.65290388  0.55816261  1
  C  C115  1  0.50000000  0.65301037  0.72243241  1
  C  C116  1  0.50000000  0.65303520  0.88675959  1
  C  C117  1  0.50000000  0.71363939  0.61071617  1
  C  C118  1  0.50000000  0.71365995  0.77639538  1
  C  C119  1  0.50000000  0.71332922  0.94280997  1
  C  C120  1  0.50000000  0.68328958  0.53069451  1
  C  C121  1  0.50000000  0.68386128  0.69521751  1
  C  C122  1  0.50000000  0.68409183  0.86028089  1
  C  C123  1  0.50000000  0.71326175  0.55692542  1
  C  C124  1  0.50000000  0.71365244  0.72336137  1
  C  C125  1  0.50000000  0.71366823  0.88900354  1
  H  H126  1  0.50000000  0.26003499  0.63221405  1
  H  H127  1  0.50000000  0.26050374  0.79652140  1
  H  H128  1  0.50000000  0.26061850  0.96265197  1
  H  H129  1  0.50000000  0.26057488  0.53755686  1
  H  H130  1  0.50000000  0.26055907  0.70345444  1
  H  H131  1  0.50000000  0.25988009  0.86844453  1
  H  H132  1  0.50000000  0.73780546  0.62999887  1
  H  H133  1  0.50000000  0.73765341  0.79611347  1
  H  H134  1  0.50000000  0.73685667  0.96405676  1
  H  H135  1  0.50000000  0.73679805  0.53574226  1
  H  H136  1  0.50000000  0.73760182  0.70347985  1
  H  H137  1  0.50000000  0.73779352  0.86960350  1
  H  H138  1  0.50000000  0.68264954  0.48863892  1
  H  H139  1  0.50000000  0.31486462  0.49075343  1
  H  H140  1  0.50000000  0.68269679  0.01103596  1
  H  H141  1  0.50000000  0.31495725  0.00952462  1
  H  H142  1  0.50000000  0.62354375  0.00963151  1
  H  H143  1  0.50000000  0.62345896  0.49028833  1
  H  H144  1  0.50000000  0.37060964  0.00575227  1
  H  H145  1  0.50000000  0.38866043  0.13498674  1
  H  H146  1  0.50000000  0.38881974  0.29621935  1
  H  H147  1  0.50000000  0.38569723  0.45051703  1
  H  H148  1  0.50000000  0.37057279  0.49420479  1
  H  H149  1  0.50000000  0.38562902  0.04958457  1
  H  H150  1  0.50000000  0.38873523  0.20393891  1
  H  H151  1  0.50000000  0.38858029  0.36529601  1
  H  H152  1  0.50000000  0.58726066  0.11845364  1
  H  H153  1  0.50000000  0.58830044  0.28948493  1
  H  H154  1  0.50000000  0.58447438  0.45601474  1
  H  H155  1  0.50000000  0.58445484  0.04407989  1
  H  H156  1  0.50000000  0.58822834  0.21064669  1
  H  H157  1  0.50000000  0.58722400  0.38160571  1
