# generated using pymatgen
data_H16C63
_symmetry_space_group_name_H-M   'P 1'
_cell_length_a   20.00000000
_cell_length_b   40.19450000
_cell_length_c   26.07362820
_cell_angle_alpha   90.00000000
_cell_angle_beta   90.00000000
_cell_angle_gamma   90.00000000
_symmetry_Int_Tables_number   1
_chemical_formula_structural   H16C63
_chemical_formula_sum   'H32 C126'
_cell_volume   20960.32897403
_cell_formula_units_Z   2
loop_
 _symmetry_equiv_pos_site_id
 _symmetry_equiv_pos_as_xyz
  1  'x, y, z'
loop_
 _atom_site_type_symbol
 _atom_site_label
 _atom_site_symmetry_multiplicity
 _atom_site_fract_x
 _atom_site_fract_y
 _atom_site_fract_z
 _atom_site_occupancy
  C  C0  1  0.50000000  0.28625821  0.61244325  1
  C  C1  1  0.50000000  0.28700963  0.77640099  1
  C  C2  1  0.50000000  0.28601475  0.94104244  1
  C  C3  1  0.50000000  0.31642378  0.63971179  1
  C  C4  1  0.50000000  0.31680073  0.80459165  1
  C  C5  1  0.50000000  0.31583079  0.96802997  1
  C  C6  1  0.50000000  0.28591746  0.55908365  1
  C  C7  1  0.50000000  0.28704415  0.72347059  1
  C  C8  1  0.50000000  0.28629723  0.88769543  1
  C  C9  1  0.50000000  0.34717086  0.61233133  1
  C  C10  1  0.50000000  0.34758995  0.77752230  1
  C  C11  1  0.50000000  0.34668366  0.94239617  1
  C  C12  1  0.50000000  0.37512554  0.13833505  1
  C  C13  1  0.50000000  0.37831620  0.63963822  1
  C  C14  1  0.50000000  0.37445876  0.30820244  1
  C  C15  1  0.50000000  0.37843448  0.80520026  1
  C  C16  1  0.50000000  0.37780651  0.47574181  1
  C  C17  1  0.50000000  0.37793436  0.97043682  1
  C  C18  1  0.50000000  0.31572942  0.53208865  1
  C  C19  1  0.50000000  0.31684900  0.69537225  1
  C  C20  1  0.50000000  0.31642149  0.86028810  1
  C  C21  1  0.50000000  0.34662113  0.55760302  1
  C  C22  1  0.50000000  0.34761913  0.72247359  1
  C  C23  1  0.50000000  0.34719329  0.88764527  1
  C  C24  1  0.50000000  0.40517136  0.11000804  1
  C  C25  1  0.50000000  0.40883594  0.61201510  1
  C  C26  1  0.50000000  0.40382221  0.27828619  1
  C  C27  1  0.50000000  0.40906404  0.77773462  1
  C  C28  1  0.50000000  0.40666867  0.44632410  1
  C  C29  1  0.50000000  0.40875070  0.94332028  1
  C  C30  1  0.50000000  0.43519910  0.13844769  1
  C  C31  1  0.50000000  0.43981181  0.63911755  1
  C  C32  1  0.50000000  0.43446649  0.30591695  1
  C  C33  1  0.50000000  0.43977867  0.80544436  1
  C  C34  1  0.50000000  0.43789797  0.47309379  1
  C  C35  1  0.50000000  0.43913308  0.97178949  1
  C  C36  1  0.50000000  0.37790237  0.02425403  1
  C  C37  1  0.50000000  0.37786789  0.52953828  1
  C  C38  1  0.50000000  0.37446932  0.19173586  1
  C  C39  1  0.50000000  0.37844659  0.69478491  1
  C  C40  1  0.50000000  0.37514828  0.36159633  1
  C  C41  1  0.50000000  0.37833936  0.86032419  1
  C  C42  1  0.50000000  0.40676090  0.05363332  1
  C  C43  1  0.50000000  0.40868467  0.55665176  1
  C  C44  1  0.50000000  0.40384699  0.22157940  1
  C  C45  1  0.50000000  0.40907035  0.72225601  1
  C  C46  1  0.50000000  0.40517911  0.38990282  1
  C  C47  1  0.50000000  0.40887429  0.88794727  1
  C  C48  1  0.50000000  0.46647150  0.11124743  1
  C  C49  1  0.50000000  0.47043490  0.61118737  1
  C  C50  1  0.50000000  0.46499709  0.27741145  1
  C  C51  1  0.50000000  0.47038426  0.77770892  1
  C  C52  1  0.50000000  0.46808135  0.44428467  1
  C  C53  1  0.50000000  0.47063878  0.94473574  1
  C  C54  1  0.50000000  0.49591141  0.14070627  1
  C  C55  1  0.50000000  0.50102674  0.63941923  1
  C  C56  1  0.50000000  0.49558350  0.30405425  1
  C  C57  1  0.50000000  0.50102073  0.80524807  1
  C  C58  1  0.50000000  0.49940409  0.47086892  1
  C  C59  1  0.50000000  0.50104536  0.97275776  1
  C  C60  1  0.50000000  0.43799883  0.02687488  1
  C  C61  1  0.50000000  0.43905690  0.52818738  1
  C  C62  1  0.50000000  0.43449690  0.19396500  1
  C  C63  1  0.50000000  0.43976694  0.69452279  1
  C  C64  1  0.50000000  0.43518878  0.36143620  1
  C  C65  1  0.50000000  0.43985391  0.86082502  1
  C  C66  1  0.50000000  0.46819251  0.05565801  1
  C  C67  1  0.50000000  0.47056899  0.55524599  1
  C  C68  1  0.50000000  0.46501899  0.22251258  1
  C  C69  1  0.50000000  0.47037293  0.72237201  1
  C  C70  1  0.50000000  0.46643130  0.38868453  1
  C  C71  1  0.50000000  0.47047806  0.88877418  1
  C  C72  1  0.50000000  0.52612919  0.11448236  1
  C  C73  1  0.50000000  0.53175813  0.61243019  1
  C  C74  1  0.50000000  0.52564751  0.27636235  1
  C  C75  1  0.50000000  0.53169625  0.77752742  1
  C  C76  1  0.50000000  0.52746297  0.43794182  1
  C  C77  1  0.50000000  0.53219748  0.94321955  1
  C  C78  1  0.50000000  0.56249285  0.64066665  1
  C  C79  1  0.50000000  0.56252601  0.80452489  1
  C  C80  1  0.50000000  0.56374912  0.96517809  1
  C  C81  1  0.50000000  0.49953755  0.02910162  1
  C  C82  1  0.50000000  0.50095662  0.52720362  1
  C  C83  1  0.50000000  0.49563151  0.19593503  1
  C  C84  1  0.50000000  0.50100133  0.69477780  1
  C  C85  1  0.50000000  0.49589324  0.35927994  1
  C  C86  1  0.50000000  0.50107631  0.86058934  1
  C  C87  1  0.50000000  0.52757842  0.06214110  1
  C  C88  1  0.50000000  0.53211679  0.55673169  1
  C  C89  1  0.50000000  0.52568623  0.22372118  1
  C  C90  1  0.50000000  0.53168330  0.72246230  1
  C  C91  1  0.50000000  0.52608778  0.38560889  1
  C  C92  1  0.50000000  0.53182148  0.88754626  1
  C  C93  1  0.50000000  0.59381158  0.61524736  1
  C  C94  1  0.50000000  0.59353107  0.77739482  1
  C  C95  1  0.50000000  0.59409664  0.93905469  1
  C  C96  1  0.50000000  0.62461683  0.64140124  1
  C  C97  1  0.50000000  0.62447915  0.80389435  1
  C  C98  1  0.50000000  0.62397371  0.96681916  1
  C  C99  1  0.50000000  0.56367215  0.53476733  1
  C  C100  1  0.50000000  0.56248436  0.69543057  1
  C  C101  1  0.50000000  0.56254773  0.85928951  1
  C  C102  1  0.50000000  0.59400681  0.56090244  1
  C  C103  1  0.50000000  0.59351959  0.72253292  1
  C  C104  1  0.50000000  0.59388380  0.88467955  1
  C  C105  1  0.50000000  0.65517865  0.61327446  1
  C  C106  1  0.50000000  0.65558815  0.77722261  1
  C  C107  1  0.50000000  0.65482174  0.94169974  1
  C  C108  1  0.50000000  0.68637272  0.63927257  1
  C  C109  1  0.50000000  0.68632502  0.80465979  1
  C  C110  1  0.50000000  0.68527153  0.96925113  1
  C  C111  1  0.50000000  0.62385538  0.53311000  1
  C  C112  1  0.50000000  0.62445781  0.69595702  1
  C  C113  1  0.50000000  0.62467289  0.85845341  1
  C  C114  1  0.50000000  0.65472470  0.55809614  1
  C  C115  1  0.50000000  0.65557297  0.72253378  1
  C  C116  1  0.50000000  0.65524620  0.88652138  1
  C  C117  1  0.50000000  0.71582639  0.61018523  1
  C  C118  1  0.50000000  0.71606728  0.77633568  1
  C  C119  1  0.50000000  0.71529671  0.94320595  1
  C  C120  1  0.50000000  0.68511419  0.53036086  1
  C  C121  1  0.50000000  0.68629406  0.69503276  1
  C  C122  1  0.50000000  0.68640611  0.86041517  1
  C  C123  1  0.50000000  0.71516529  0.55633355  1
  C  C124  1  0.50000000  0.71605089  0.72329915  1
  C  C125  1  0.50000000  0.71589549  0.88936766  1
  H  H126  1  0.50000000  0.26253519  0.63289374  1
  H  H127  1  0.50000000  0.26302452  0.79603922  1
  H  H128  1  0.50000000  0.26226809  0.96169879  1
  H  H129  1  0.50000000  0.26221594  0.53829632  1
  H  H130  1  0.50000000  0.26311355  0.70364341  1
  H  H131  1  0.50000000  0.26245371  0.86758121  1
  H  H132  1  0.50000000  0.74003671  0.62929736  1
  H  H133  1  0.50000000  0.74000558  0.79615059  1
  H  H134  1  0.50000000  0.73878746  0.96453225  1
  H  H135  1  0.50000000  0.73862071  0.53490513  1
  H  H136  1  0.50000000  0.73996053  0.70337902  1
  H  H137  1  0.50000000  0.74004844  0.87008240  1
  H  H138  1  0.50000000  0.68422405  0.48831988  1
  H  H139  1  0.50000000  0.31452664  0.49026049  1
  H  H140  1  0.50000000  0.68447541  0.01125579  1
  H  H141  1  0.50000000  0.31471593  0.00989121  1
  H  H142  1  0.50000000  0.35115068  0.11844133  1
  H  H143  1  0.50000000  0.35006316  0.28955857  1
  H  H144  1  0.50000000  0.35390591  0.45609698  1
  H  H145  1  0.50000000  0.35408866  0.04414825  1
  H  H146  1  0.50000000  0.35015010  0.21062950  1
  H  H147  1  0.50000000  0.35121011  0.38159131  1
  H  H148  1  0.50000000  0.62322167  0.00890105  1
  H  H149  1  0.50000000  0.62304932  0.49107130  1
  H  H150  1  0.50000000  0.54971869  0.13512341  1
  H  H151  1  0.50000000  0.54949910  0.29625787  1
  H  H152  1  0.50000000  0.55263709  0.45096645  1
  H  H153  1  0.50000000  0.56806614  0.00548555  1
  H  H154  1  0.50000000  0.55282383  0.04940304  1
  H  H155  1  0.50000000  0.54964174  0.20411540  1
  H  H156  1  0.50000000  0.54976778  0.36523604  1
  H  H157  1  0.50000000  0.56807513  0.49446214  1
