# generated using pymatgen
data_H17C72
_symmetry_space_group_name_H-M   'P 1'
_cell_length_a   10.00000000
_cell_length_b   41.10890000
_cell_length_c   26.16575645
_cell_angle_alpha   90.00000000
_cell_angle_beta   90.00000000
_cell_angle_gamma   90.00000000
_symmetry_Int_Tables_number   1
_chemical_formula_structural   H17C72
_chemical_formula_sum   'H34 C144'
_cell_volume   10756.45465476
_cell_formula_units_Z   2
loop_
 _symmetry_equiv_pos_site_id
 _symmetry_equiv_pos_as_xyz
  1  'x, y, z'
loop_
 _atom_site_type_symbol
 _atom_site_label
 _atom_site_symmetry_multiplicity
 _atom_site_fract_x
 _atom_site_fract_y
 _atom_site_fract_z
 _atom_site_occupancy
  C  C0  1  0.50000000  0.28855733  0.63930428  1
  C  C1  1  0.50000000  0.28970299  0.96921562  1
  C  C2  1  0.50000000  0.34893471  0.64099514  1
  C  C3  1  0.50000000  0.34966254  0.96739108  1
  C  C4  1  0.50000000  0.40896814  0.64234851  1
  C  C5  1  0.50000000  0.40941550  0.96553833  1
  C  C6  1  0.50000000  0.46977061  0.64128129  1
  C  C7  1  0.50000000  0.46823588  0.96396959  1
  C  C8  1  0.50000000  0.53087092  0.30455454  1
  C  C9  1  0.50000000  0.53003385  0.63948850  1
  C  C10  1  0.50000000  0.52938624  0.97255234  1
  C  C11  1  0.50000000  0.59029637  0.30592628  1
  C  C12  1  0.50000000  0.58993595  0.63841547  1
  C  C13  1  0.50000000  0.59025924  0.97281646  1
  C  C14  1  0.50000000  0.64973790  0.30464945  1
  C  C15  1  0.50000000  0.64979654  0.63918433  1
  C  C16  1  0.50000000  0.65127416  0.97252892  1
  C  C17  1  0.50000000  0.71002397  0.64113641  1
  C  C18  1  0.50000000  0.71361793  0.96340274  1
  C  C19  1  0.50000000  0.28848580  0.69507227  1
  C  C20  1  0.50000000  0.34884056  0.69565458  1
  C  C21  1  0.50000000  0.40911139  0.69644575  1
  C  C22  1  0.50000000  0.46983773  0.69590615  1
  C  C23  1  0.50000000  0.52984077  0.02857018  1
  C  C24  1  0.50000000  0.53131209  0.35949247  1
  C  C25  1  0.50000000  0.53003521  0.69483050  1
  C  C26  1  0.50000000  0.59020217  0.02784802  1
  C  C27  1  0.50000000  0.59031733  0.36083308  1
  C  C28  1  0.50000000  0.58978434  0.69403128  1
  C  C29  1  0.50000000  0.65047268  0.02847299  1
  C  C30  1  0.50000000  0.64939106  0.35964909  1
  C  C31  1  0.50000000  0.64932008  0.69445513  1
  C  C32  1  0.50000000  0.70914773  0.69614315  1
  C  C33  1  0.50000000  0.25941616  0.72344905  1
  C  C34  1  0.50000000  0.31850593  0.72256395  1
  C  C35  1  0.50000000  0.37877164  0.72279605  1
  C  C36  1  0.50000000  0.43957590  0.72281577  1
  C  C37  1  0.50000000  0.50190069  0.06099796  1
  C  C38  1  0.50000000  0.50222429  0.38696241  1
  C  C39  1  0.50000000  0.50005611  0.72268938  1
  C  C40  1  0.50000000  0.56011217  0.05585002  1
  C  C41  1  0.50000000  0.56048635  0.38863462  1
  C  C42  1  0.50000000  0.55993289  0.72226540  1
  C  C43  1  0.50000000  0.62027248  0.05582003  1
  C  C44  1  0.50000000  0.62014007  0.38864039  1
  C  C45  1  0.50000000  0.61955675  0.72214586  1
  C  C46  1  0.50000000  0.67851419  0.06045611  1
  C  C47  1  0.50000000  0.67848588  0.38727792  1
  C  C48  1  0.50000000  0.67913147  0.72263867  1
  C  C49  1  0.50000000  0.73838456  0.72379905  1
  C  C50  1  0.50000000  0.25942000  0.77640818  1
  C  C51  1  0.50000000  0.31851181  0.77736834  1
  C  C52  1  0.50000000  0.37876837  0.77723649  1
  C  C53  1  0.50000000  0.43957142  0.77726525  1
  C  C54  1  0.50000000  0.50218390  0.11314722  1
  C  C55  1  0.50000000  0.50191432  0.43911801  1
  C  C56  1  0.50000000  0.50005393  0.77743426  1
  C  C57  1  0.50000000  0.56044391  0.11149007  1
  C  C58  1  0.50000000  0.56013438  0.44425005  1
  C  C59  1  0.50000000  0.55993432  0.77781692  1
  C  C60  1  0.50000000  0.62013025  0.11143710  1
  C  C61  1  0.50000000  0.62029599  0.44425336  1
  C  C62  1  0.50000000  0.61956915  0.77791299  1
  C  C63  1  0.50000000  0.67851974  0.11265965  1
  C  C64  1  0.50000000  0.67855317  0.43947152  1
  C  C65  1  0.50000000  0.67916818  0.77737080  1
  C  C66  1  0.50000000  0.73841903  0.77607230  1
  C  C67  1  0.50000000  0.28848434  0.80480745  1
  C  C68  1  0.50000000  0.34883422  0.80433607  1
  C  C69  1  0.50000000  0.40910295  0.80361602  1
  C  C70  1  0.50000000  0.46982928  0.80420190  1
  C  C71  1  0.50000000  0.53126422  0.14064327  1
  C  C72  1  0.50000000  0.52985954  0.47153589  1
  C  C73  1  0.50000000  0.53003554  0.80528947  1
  C  C74  1  0.50000000  0.59029924  0.13926006  1
  C  C75  1  0.50000000  0.59021536  0.47223619  1
  C  C76  1  0.50000000  0.58979474  0.80605645  1
  C  C77  1  0.50000000  0.64942897  0.14039358  1
  C  C78  1  0.50000000  0.65052089  0.47154016  1
  C  C79  1  0.50000000  0.64935926  0.80553711  1
  C  C80  1  0.50000000  0.70919967  0.80378491  1
  C  C81  1  0.50000000  0.28979158  0.53064415  1
  C  C82  1  0.50000000  0.28855376  0.86056285  1
  C  C83  1  0.50000000  0.34973908  0.53255473  1
  C  C84  1  0.50000000  0.34892403  0.85899099  1
  C  C85  1  0.50000000  0.40945760  0.53454779  1
  C  C86  1  0.50000000  0.40895869  0.85771367  1
  C  C87  1  0.50000000  0.46824305  0.53610297  1
  C  C88  1  0.50000000  0.46976116  0.85883435  1
  C  C89  1  0.50000000  0.53085828  0.19557011  1
  C  C90  1  0.50000000  0.52939223  0.52755535  1
  C  C91  1  0.50000000  0.53003756  0.86061017  1
  C  C92  1  0.50000000  0.59032046  0.19415062  1
  C  C93  1  0.50000000  0.59025841  0.52726005  1
  C  C94  1  0.50000000  0.58994356  0.86166255  1
  C  C95  1  0.50000000  0.64977205  0.19538804  1
  C  C96  1  0.50000000  0.65126818  0.52749520  1
  C  C97  1  0.50000000  0.64981930  0.86083277  1
  C  C98  1  0.50000000  0.71353446  0.53650740  1
  C  C99  1  0.50000000  0.71002880  0.85879379  1
  C  C100  1  0.50000000  0.26040780  0.55660313  1
  C  C101  1  0.50000000  0.25972609  0.88953736  1
  C  C102  1  0.50000000  0.31961405  0.55800591  1
  C  C103  1  0.50000000  0.31897302  0.88682152  1
  C  C104  1  0.50000000  0.37927430  0.55956089  1
  C  C105  1  0.50000000  0.37904146  0.88531104  1
  C  C106  1  0.50000000  0.43868137  0.56216181  1
  C  C107  1  0.50000000  0.43913245  0.88387489  1
  C  C108  1  0.50000000  0.50138064  0.22383558  1
  C  C109  1  0.50000000  0.49917755  0.55762630  1
  C  C110  1  0.50000000  0.49982766  0.88715893  1
  C  C111  1  0.50000000  0.56064273  0.22253357  1
  C  C112  1  0.50000000  0.55960241  0.55493587  1
  C  C113  1  0.50000000  0.55983491  0.88919142  1
  C  C114  1  0.50000000  0.62000901  0.22249851  1
  C  C115  1  0.50000000  0.62089822  0.55486456  1
  C  C116  1  0.50000000  0.62026457  0.88926695  1
  C  C117  1  0.50000000  0.67918312  0.22374980  1
  C  C118  1  0.50000000  0.68167688  0.55731478  1
  C  C119  1  0.50000000  0.68038931  0.88763559  1
  C  C120  1  0.50000000  0.74200848  0.56466713  1
  C  C121  1  0.50000000  0.74050452  0.88270336  1
  C  C122  1  0.50000000  0.25974854  0.61025400  1
  C  C123  1  0.50000000  0.26033634  0.94319394  1
  C  C124  1  0.50000000  0.31900154  0.61309932  1
  C  C125  1  0.50000000  0.31954595  0.94190796  1
  C  C126  1  0.50000000  0.37906002  0.61471605  1
  C  C127  1  0.50000000  0.37923473  0.94047260  1
  C  C128  1  0.50000000  0.43915111  0.61622859  1
  C  C129  1  0.50000000  0.43865955  0.93794585  1
  C  C130  1  0.50000000  0.50138116  0.27634148  1
  C  C131  1  0.50000000  0.49982243  0.61293922  1
  C  C132  1  0.50000000  0.49917657  0.94246580  1
  C  C133  1  0.50000000  0.56062642  0.27753440  1
  C  C134  1  0.50000000  0.55983099  0.61089556  1
  C  C135  1  0.50000000  0.55959706  0.94515631  1
  C  C136  1  0.50000000  0.61998751  0.27755625  1
  C  C137  1  0.50000000  0.62024952  0.61076545  1
  C  C138  1  0.50000000  0.62089936  0.94517473  1
  C  C139  1  0.50000000  0.67916584  0.27628730  1
  C  C140  1  0.50000000  0.68036599  0.61237375  1
  C  C141  1  0.50000000  0.68172248  0.94271030  1
  C  C142  1  0.50000000  0.74048234  0.61714063  1
  C  C143  1  0.50000000  0.74207483  0.93516895  1
  H  H144  1  0.50000000  0.23594698  0.70381011  1
  H  H145  1  0.50000000  0.76186802  0.70458979  1
  H  H146  1  0.50000000  0.23594099  0.79600923  1
  H  H147  1  0.50000000  0.76194963  0.79519102  1
  H  H148  1  0.50000000  0.23741679  0.53533867  1
  H  H149  1  0.50000000  0.23614635  0.87023662  1
  H  H150  1  0.50000000  0.76542414  0.54469119  1
  H  H151  1  0.50000000  0.76300870  0.86074413  1
  H  H152  1  0.50000000  0.23609858  0.62935064  1
  H  H153  1  0.50000000  0.23735905  0.96449293  1
  H  H154  1  0.50000000  0.76304542  0.63894547  1
  H  H155  1  0.50000000  0.76549357  0.95517101  1
  H  H156  1  0.50000000  0.29042420  0.01107851  1
  H  H157  1  0.50000000  0.35016530  0.00931017  1
  H  H158  1  0.50000000  0.41007680  0.00745514  1
  H  H159  1  0.50000000  0.46386017  0.00398458  1
  H  H160  1  0.50000000  0.71884388  0.00339967  1
  H  H161  1  0.50000000  0.47734128  0.04787195  1
  H  H162  1  0.50000000  0.47872511  0.36751276  1
  H  H163  1  0.50000000  0.70267104  0.04571464  1
  H  H164  1  0.50000000  0.70203292  0.36794107  1
  H  H165  1  0.50000000  0.47866653  0.13252070  1
  H  H166  1  0.50000000  0.47734921  0.45224247  1
  H  H167  1  0.50000000  0.70214586  0.13178867  1
  H  H168  1  0.50000000  0.70279191  0.45392241  1
  H  H169  1  0.50000000  0.29054822  0.48879296  1
  H  H170  1  0.50000000  0.35030331  0.49063060  1
  H  H171  1  0.50000000  0.41012053  0.49264165  1
  H  H172  1  0.50000000  0.46383627  0.49608181  1
  H  H173  1  0.50000000  0.71866827  0.49647921  1
  H  H174  1  0.50000000  0.47794185  0.20419780  1
  H  H175  1  0.50000000  0.70263552  0.20416021  1
  H  H176  1  0.50000000  0.47795441  0.29598945  1
  H  H177  1  0.50000000  0.70260791  0.29587665  1
