# generated using pymatgen
data_H5C21
_symmetry_space_group_name_H-M   'P 1'
_cell_length_a   20.00000000
_cell_length_b   37.22700000
_cell_length_c   25.79801928
_cell_angle_alpha   90.00000000
_cell_angle_beta   90.00000000
_cell_angle_gamma   90.00000000
_symmetry_Int_Tables_number   1
_chemical_formula_structural   H5C21
_chemical_formula_sum   'H30 C126'
_cell_volume   19207.65727185
_cell_formula_units_Z   6
loop_
 _symmetry_equiv_pos_site_id
 _symmetry_equiv_pos_as_xyz
  1  'x, y, z'
loop_
 _atom_site_type_symbol
 _atom_site_label
 _atom_site_symmetry_multiplicity
 _atom_site_fract_x
 _atom_site_fract_y
 _atom_site_fract_z
 _atom_site_occupancy
  C  C0  1  0.50000000  0.31668951  0.55389208  1
  C  C1  1  0.50000000  0.31666070  0.88910439  1
  C  C2  1  0.50000000  0.38327566  0.55629886  1
  C  C3  1  0.50000000  0.38334496  0.88790622  1
  C  C4  1  0.50000000  0.44941208  0.55567775  1
  C  C5  1  0.50000000  0.44979832  0.88838861  1
  C  C6  1  0.50000000  0.51680385  0.22204160  1
  C  C7  1  0.50000000  0.51660562  0.55595577  1
  C  C8  1  0.50000000  0.51639023  0.88867163  1
  C  C9  1  0.50000000  0.58314399  0.22235359  1
  C  C10  1  0.50000000  0.58284180  0.55597767  1
  C  C11  1  0.50000000  0.58273941  0.88873245  1
  C  C12  1  0.50000000  0.64949059  0.22200757  1
  C  C13  1  0.50000000  0.64899560  0.55601543  1
  C  C14  1  0.50000000  0.64921755  0.88849357  1
  C  C15  1  0.50000000  0.71505886  0.55625013  1
  C  C16  1  0.50000000  0.71516062  0.89053026  1
  C  C17  1  0.50000000  0.31665380  0.61096095  1
  C  C18  1  0.50000000  0.31669458  0.94620069  1
  C  C19  1  0.50000000  0.38335318  0.61214435  1
  C  C20  1  0.50000000  0.38327365  0.94376248  1
  C  C21  1  0.50000000  0.44979671  0.61159401  1
  C  C22  1  0.50000000  0.44942576  0.94429281  1
  C  C23  1  0.50000000  0.51679645  0.27800069  1
  C  C24  1  0.50000000  0.51638851  0.61128547  1
  C  C25  1  0.50000000  0.51661912  0.94400210  1
  C  C26  1  0.50000000  0.58313931  0.27762998  1
  C  C27  1  0.50000000  0.58274527  0.61122448  1
  C  C28  1  0.50000000  0.58284130  0.94398681  1
  C  C29  1  0.50000000  0.64948921  0.27801334  1
  C  C30  1  0.50000000  0.64923337  0.61145539  1
  C  C31  1  0.50000000  0.64898760  0.94393476  1
  C  C32  1  0.50000000  0.71518458  0.60938820  1
  C  C33  1  0.50000000  0.71504248  0.94365144  1
  C  C34  1  0.50000000  0.28452323  0.63934839  1
  C  C35  1  0.50000000  0.28575130  0.97567728  1
  C  C36  1  0.50000000  0.34975779  0.63898081  1
  C  C37  1  0.50000000  0.35094830  0.97106571  1
  C  C38  1  0.50000000  0.41636569  0.63926620  1
  C  C39  1  0.50000000  0.41676012  0.96992715  1
  C  C40  1  0.50000000  0.48433796  0.30691051  1
  C  C41  1  0.50000000  0.48280276  0.63904205  1
  C  C42  1  0.50000000  0.48357752  0.97235434  1
  C  C43  1  0.50000000  0.54987333  0.30560834  1
  C  C44  1  0.50000000  0.54939316  0.63897299  1
  C  C45  1  0.50000000  0.54975069  0.97188968  1
  C  C46  1  0.50000000  0.61642646  0.30562581  1
  C  C47  1  0.50000000  0.61593302  0.63923788  1
  C  C48  1  0.50000000  0.61608038  0.97194975  1
  C  C49  1  0.50000000  0.68190817  0.30673577  1
  C  C50  1  0.50000000  0.68258141  0.63869520  1
  C  C51  1  0.50000000  0.68213639  0.97198234  1
  C  C52  1  0.50000000  0.28436915  0.69305175  1
  C  C53  1  0.50000000  0.34972809  0.69452357  1
  C  C54  1  0.50000000  0.41634701  0.69492632  1
  C  C55  1  0.50000000  0.48474728  0.02617716  1
  C  C56  1  0.50000000  0.48439180  0.36018111  1
  C  C57  1  0.50000000  0.48288219  0.69454775  1
  C  C58  1  0.50000000  0.55003194  0.02740103  1
  C  C59  1  0.50000000  0.54989271  0.36137012  1
  C  C60  1  0.50000000  0.54938836  0.69456559  1
  C  C61  1  0.50000000  0.61630355  0.02738129  1
  C  C62  1  0.50000000  0.61647618  0.36132183  1
  C  C63  1  0.50000000  0.61589358  0.69445415  1
  C  C64  1  0.50000000  0.68173929  0.02626020  1
  C  C65  1  0.50000000  0.68192727  0.36008048  1
  C  C66  1  0.50000000  0.68248843  0.69432150  1
  C  C67  1  0.50000000  0.31647534  0.72189615  1
  C  C68  1  0.50000000  0.38314659  0.72228932  1
  C  C69  1  0.50000000  0.44963854  0.72234062  1
  C  C70  1  0.50000000  0.51686938  0.05487376  1
  C  C71  1  0.50000000  0.51679823  0.38907673  1
  C  C72  1  0.50000000  0.51606084  0.72224419  1
  C  C73  1  0.50000000  0.58316657  0.05543677  1
  C  C74  1  0.50000000  0.58314432  0.38923892  1
  C  C75  1  0.50000000  0.58250096  0.72221255  1
  C  C76  1  0.50000000  0.64970770  0.05485517  1
  C  C77  1  0.50000000  0.64955285  0.38887326  1
  C  C78  1  0.50000000  0.64925152  0.72210221  1
  C  C79  1  0.50000000  0.71498361  0.72342941  1
  C  C80  1  0.50000000  0.31647061  0.77814092  1
  C  C81  1  0.50000000  0.38313995  0.77773495  1
  C  C82  1  0.50000000  0.44963199  0.77767180  1
  C  C83  1  0.50000000  0.51678028  0.11091755  1
  C  C84  1  0.50000000  0.51687568  0.44511533  1
  C  C85  1  0.50000000  0.51605825  0.77772774  1
  C  C86  1  0.50000000  0.58314222  0.11075348  1
  C  C87  1  0.50000000  0.58316562  0.44454450  1
  C  C88  1  0.50000000  0.58249629  0.77773019  1
  C  C89  1  0.50000000  0.64956425  0.11109086  1
  C  C90  1  0.50000000  0.64969674  0.44510748  1
  C  C91  1  0.50000000  0.64924165  0.77783603  1
  C  C92  1  0.50000000  0.71497237  0.77657191  1
  C  C93  1  0.50000000  0.28436044  0.80698167  1
  C  C94  1  0.50000000  0.34972384  0.80551787  1
  C  C95  1  0.50000000  0.41633715  0.80509797  1
  C  C96  1  0.50000000  0.48439026  0.13987086  1
  C  C97  1  0.50000000  0.48473273  0.47377248  1
  C  C98  1  0.50000000  0.48288118  0.80543832  1
  C  C99  1  0.50000000  0.54988291  0.13862404  1
  C  C100  1  0.50000000  0.55003420  0.47258012  1
  C  C101  1  0.50000000  0.54938813  0.80538984  1
  C  C102  1  0.50000000  0.61648522  0.13865729  1
  C  C103  1  0.50000000  0.61630082  0.47258827  1
  C  C104  1  0.50000000  0.61588490  0.80548749  1
  C  C105  1  0.50000000  0.68191680  0.13993270  1
  C  C106  1  0.50000000  0.68173703  0.47366783  1
  C  C107  1  0.50000000  0.68246411  0.80563502  1
  C  C108  1  0.50000000  0.28571838  0.52449282  1
  C  C109  1  0.50000000  0.28453243  0.86070025  1
  C  C110  1  0.50000000  0.35093679  0.52906506  1
  C  C111  1  0.50000000  0.34975667  0.86106832  1
  C  C112  1  0.50000000  0.41673826  0.53005848  1
  C  C113  1  0.50000000  0.41635352  0.86075871  1
  C  C114  1  0.50000000  0.48435250  0.19313907  1
  C  C115  1  0.50000000  0.48355604  0.52760081  1
  C  C116  1  0.50000000  0.48280105  0.86093442  1
  C  C117  1  0.50000000  0.54987381  0.19439560  1
  C  C118  1  0.50000000  0.54974598  0.52808424  1
  C  C119  1  0.50000000  0.54939124  0.86098032  1
  C  C120  1  0.50000000  0.61643592  0.19436370  1
  C  C121  1  0.50000000  0.61608239  0.52801562  1
  C  C122  1  0.50000000  0.61592241  0.86070713  1
  C  C123  1  0.50000000  0.68189255  0.19326378  1
  C  C124  1  0.50000000  0.68213945  0.52795257  1
  C  C125  1  0.50000000  0.68255783  0.86124696  1
  H  H126  1  0.50000000  0.74035496  0.53450284  1
  H  H127  1  0.50000000  0.74099329  0.87043893  1
  H  H128  1  0.50000000  0.74098712  0.62955616  1
  H  H129  1  0.50000000  0.74041588  0.96517522  1
  H  H130  1  0.50000000  0.25875559  0.61898877  1
  H  H131  1  0.50000000  0.25876473  0.95891881  1
  H  H132  1  0.50000000  0.25840070  0.71282877  1
  H  H133  1  0.50000000  0.74081732  0.70331790  1
  H  H134  1  0.50000000  0.74078273  0.79674799  1
  H  H135  1  0.50000000  0.25840415  0.78714514  1
  H  H136  1  0.50000000  0.25880160  0.54148605  1
  H  H137  1  0.50000000  0.25879118  0.88112644  1
  H  H138  1  0.50000000  0.28753267  0.01808529  1
  H  H139  1  0.50000000  0.35169433  0.01359310  1
  H  H140  1  0.50000000  0.41567666  0.01226998  1
  H  H141  1  0.50000000  0.45844888  0.28696472  1
  H  H142  1  0.50000000  0.70770179  0.28660020  1
  H  H143  1  0.50000000  0.45945801  0.04731911  1
  H  H144  1  0.50000000  0.45850624  0.38016834  1
  H  H145  1  0.50000000  0.70772669  0.04598532  1
  H  H146  1  0.50000000  0.70776742  0.38015571  1
  H  H147  1  0.50000000  0.45845453  0.12003663  1
  H  H148  1  0.50000000  0.45949257  0.45247755  1
  H  H149  1  0.50000000  0.70782947  0.12007639  1
  H  H150  1  0.50000000  0.70768662  0.45382100  1
  H  H151  1  0.50000000  0.28740625  0.48207967  1
  H  H152  1  0.50000000  0.35168514  0.48658059  1
  H  H153  1  0.50000000  0.41564018  0.48769143  1
  H  H154  1  0.50000000  0.45846008  0.21308051  1
  H  H155  1  0.50000000  0.70774326  0.21323106  1
