# generated using pymatgen
data_H23C72
_symmetry_space_group_name_H-M   'P 1'
_cell_length_a   10.00000000
_cell_length_b   41.10890000
_cell_length_c   26.15564285
_cell_angle_alpha   90.00000000
_cell_angle_beta   90.00000000
_cell_angle_gamma   90.00000000
_symmetry_Int_Tables_number   1
_chemical_formula_structural   H23C72
_chemical_formula_sum   'H46 C144'
_cell_volume   10752.29706553
_cell_formula_units_Z   2
loop_
 _symmetry_equiv_pos_site_id
 _symmetry_equiv_pos_as_xyz
  1  'x, y, z'
loop_
 _atom_site_type_symbol
 _atom_site_label
 _atom_site_symmetry_multiplicity
 _atom_site_fract_x
 _atom_site_fract_y
 _atom_site_fract_z
 _atom_site_occupancy
  C  C0  1  0.50000000  0.28361128  0.30631627  1
  C  C1  1  0.50000000  0.29128179  0.63917412  1
  C  C2  1  0.50000000  0.28992031  0.97116282  1
  C  C3  1  0.50000000  0.34347687  0.30432417  1
  C  C4  1  0.50000000  0.35108801  0.63940621  1
  C  C5  1  0.50000000  0.35058222  0.97360931  1
  C  C6  1  0.50000000  0.41088723  0.64056342  1
  C  C7  1  0.50000000  0.41219242  0.96547855  1
  C  C8  1  0.50000000  0.47144792  0.64174924  1
  C  C9  1  0.50000000  0.47133084  0.96622709  1
  C  C10  1  0.50000000  0.53141237  0.64105153  1
  C  C11  1  0.50000000  0.53133984  0.96725234  1
  C  C12  1  0.50000000  0.59132023  0.64106587  1
  C  C13  1  0.50000000  0.59146046  0.96737895  1
  C  C14  1  0.50000000  0.65135234  0.64072217  1
  C  C15  1  0.50000000  0.65129935  0.96716815  1
  C  C16  1  0.50000000  0.71214488  0.30828257  1
  C  C17  1  0.50000000  0.71126437  0.64022805  1
  C  C18  1  0.50000000  0.71201100  0.97017669  1
  C  C19  1  0.50000000  0.28799826  0.02642596  1
  C  C20  1  0.50000000  0.28454185  0.36214551  1
  C  C21  1  0.50000000  0.29127958  0.69489248  1
  C  C22  1  0.50000000  0.34829891  0.02904557  1
  C  C23  1  0.50000000  0.34404122  0.35877629  1
  C  C24  1  0.50000000  0.35108730  0.69452042  1
  C  C25  1  0.50000000  0.41086407  0.69536091  1
  C  C26  1  0.50000000  0.47129158  0.69615354  1
  C  C27  1  0.50000000  0.53142517  0.69567601  1
  C  C28  1  0.50000000  0.59140548  0.69565201  1
  C  C29  1  0.50000000  0.65140632  0.69543995  1
  C  C30  1  0.50000000  0.71295223  0.02345095  1
  C  C31  1  0.50000000  0.71269769  0.36117502  1
  C  C32  1  0.50000000  0.71146840  0.69518683  1
  C  C33  1  0.50000000  0.25794248  0.05388395  1
  C  C34  1  0.50000000  0.25621244  0.39336284  1
  C  C35  1  0.50000000  0.26215727  0.72371741  1
  C  C36  1  0.50000000  0.31721465  0.05551230  1
  C  C37  1  0.50000000  0.31513940  0.38878080  1
  C  C38  1  0.50000000  0.32113853  0.72247598  1
  C  C39  1  0.50000000  0.37557952  0.06273451  1
  C  C40  1  0.50000000  0.37383203  0.38515109  1
  C  C41  1  0.50000000  0.38090168  0.72250526  1
  C  C42  1  0.50000000  0.44103801  0.72270662  1
  C  C43  1  0.50000000  0.50143549  0.72283567  1
  C  C44  1  0.50000000  0.56137258  0.72274505  1
  C  C45  1  0.50000000  0.62142531  0.72266176  1
  C  C46  1  0.50000000  0.68146910  0.72265700  1
  C  C47  1  0.50000000  0.74094917  0.05429491  1
  C  C48  1  0.50000000  0.74079686  0.39249671  1
  C  C49  1  0.50000000  0.74080864  0.72371961  1
  C  C50  1  0.50000000  0.25624098  0.10667409  1
  C  C51  1  0.50000000  0.25796518  0.44616499  1
  C  C52  1  0.50000000  0.26219132  0.77658930  1
  C  C53  1  0.50000000  0.31518195  0.11118888  1
  C  C54  1  0.50000000  0.31722295  0.44449407  1
  C  C55  1  0.50000000  0.32116390  0.77769445  1
  C  C56  1  0.50000000  0.37389885  0.11473945  1
  C  C57  1  0.50000000  0.37558876  0.43715907  1
  C  C58  1  0.50000000  0.38091838  0.77758465  1
  C  C59  1  0.50000000  0.44104881  0.77729959  1
  C  C60  1  0.50000000  0.50144831  0.77714715  1
  C  C61  1  0.50000000  0.56138182  0.77726204  1
  C  C62  1  0.50000000  0.62142659  0.77737029  1
  C  C63  1  0.50000000  0.68146805  0.77739352  1
  C  C64  1  0.50000000  0.74081984  0.10733689  1
  C  C65  1  0.50000000  0.74094278  0.44558733  1
  C  C66  1  0.50000000  0.74080801  0.77632989  1
  C  C67  1  0.50000000  0.28458890  0.13782112  1
  C  C68  1  0.50000000  0.28800973  0.47363884  1
  C  C69  1  0.50000000  0.29133129  0.80532158  1
  C  C70  1  0.50000000  0.34410362  0.14114040  1
  C  C71  1  0.50000000  0.34832501  0.47095374  1
  C  C72  1  0.50000000  0.35112321  0.80561798  1
  C  C73  1  0.50000000  0.41088981  0.80468508  1
  C  C74  1  0.50000000  0.47131219  0.80382382  1
  C  C75  1  0.50000000  0.53144097  0.80431492  1
  C  C76  1  0.50000000  0.59141086  0.80437935  1
  C  C77  1  0.50000000  0.65140412  0.80460557  1
  C  C78  1  0.50000000  0.71268619  0.13851607  1
  C  C79  1  0.50000000  0.71296200  0.47649763  1
  C  C80  1  0.50000000  0.71146914  0.80485806  1
  C  C81  1  0.50000000  0.28363539  0.19361440  1
  C  C82  1  0.50000000  0.28987469  0.52892655  1
  C  C83  1  0.50000000  0.29133317  0.86100308  1
  C  C84  1  0.50000000  0.34349891  0.19558306  1
  C  C85  1  0.50000000  0.35053212  0.52645210  1
  C  C86  1  0.50000000  0.35114668  0.86073492  1
  C  C87  1  0.50000000  0.41207380  0.53458066  1
  C  C88  1  0.50000000  0.41092894  0.85948074  1
  C  C89  1  0.50000000  0.47125497  0.53370088  1
  C  C90  1  0.50000000  0.47148249  0.85821724  1
  C  C91  1  0.50000000  0.53131803  0.53275169  1
  C  C92  1  0.50000000  0.53144599  0.85893622  1
  C  C93  1  0.50000000  0.59145064  0.53269774  1
  C  C94  1  0.50000000  0.59133492  0.85897435  1
  C  C95  1  0.50000000  0.65128058  0.53288391  1
  C  C96  1  0.50000000  0.65135285  0.85931972  1
  C  C97  1  0.50000000  0.71212174  0.19140994  1
  C  C98  1  0.50000000  0.71200240  0.52979772  1
  C  C99  1  0.50000000  0.71127520  0.85980486  1
  C  C100  1  0.50000000  0.25450567  0.22338597  1
  C  C101  1  0.50000000  0.26102001  0.55880711  1
  C  C102  1  0.50000000  0.26164523  0.88882475  1
  C  C103  1  0.50000000  0.31327952  0.22234163  1
  C  C104  1  0.50000000  0.32069360  0.55532846  1
  C  C105  1  0.50000000  0.32095175  0.88900724  1
  C  C106  1  0.50000000  0.37296522  0.22385300  1
  C  C107  1  0.50000000  0.38125306  0.55625145  1
  C  C108  1  0.50000000  0.38095051  0.88794551  1
  C  C109  1  0.50000000  0.44190765  0.56090311  1
  C  C110  1  0.50000000  0.44149280  0.88477361  1
  C  C111  1  0.50000000  0.50143203  0.55916457  1
  C  C112  1  0.50000000  0.50139343  0.88565902  1
  C  C113  1  0.50000000  0.56124992  0.55869071  1
  C  C114  1  0.50000000  0.56136339  0.88612055  1
  C  C115  1  0.50000000  0.62106078  0.55904407  1
  C  C116  1  0.50000000  0.62133238  0.88598262  1
  C  C117  1  0.50000000  0.68106322  0.55777894  1
  C  C118  1  0.50000000  0.68151802  0.88674930  1
  C  C119  1  0.50000000  0.73992753  0.22343312  1
  C  C120  1  0.50000000  0.74128205  0.55941173  1
  C  C121  1  0.50000000  0.74103372  0.88845629  1
  C  C122  1  0.50000000  0.25449474  0.27651075  1
  C  C123  1  0.50000000  0.26160256  0.61132331  1
  C  C124  1  0.50000000  0.26106330  0.94131407  1
  C  C125  1  0.50000000  0.31326320  0.27757309  1
  C  C126  1  0.50000000  0.32089581  0.61113137  1
  C  C127  1  0.50000000  0.32075147  0.94477773  1
  C  C128  1  0.50000000  0.37295503  0.27604939  1
  C  C129  1  0.50000000  0.38088446  0.61217028  1
  C  C130  1  0.50000000  0.38133898  0.94388526  1
  C  C131  1  0.50000000  0.44143793  0.61520380  1
  C  C132  1  0.50000000  0.44198429  0.93904943  1
  C  C133  1  0.50000000  0.50135450  0.61429579  1
  C  C134  1  0.50000000  0.50148751  0.94077400  1
  C  C135  1  0.50000000  0.56134261  0.61391254  1
  C  C136  1  0.50000000  0.56127553  0.94135072  1
  C  C137  1  0.50000000  0.62132412  0.61408179  1
  C  C138  1  0.50000000  0.62107205  0.94103411  1
  C  C139  1  0.50000000  0.68151208  0.61327560  1
  C  C140  1  0.50000000  0.68106907  0.94223514  1
  C  C141  1  0.50000000  0.73994287  0.27625994  1
  C  C142  1  0.50000000  0.74101771  0.61157086  1
  C  C143  1  0.50000000  0.74130146  0.94060073  1
  H  H144  1  0.50000000  0.23494720  0.03288121  1
  H  H145  1  0.50000000  0.23215215  0.37544738  1
  H  H146  1  0.50000000  0.23862827  0.70434109  1
  H  H147  1  0.50000000  0.76478204  0.03552630  1
  H  H148  1  0.50000000  0.76465213  0.37377943  1
  H  H149  1  0.50000000  0.76424984  0.70407748  1
  H  H150  1  0.50000000  0.23220437  0.12465948  1
  H  H151  1  0.50000000  0.23502515  0.46730799  1
  H  H152  1  0.50000000  0.23871740  0.79612120  1
  H  H153  1  0.50000000  0.76464054  0.12614240  1
  H  H154  1  0.50000000  0.76481319  0.46423885  1
  H  H155  1  0.50000000  0.76424229  0.79599078  1
  H  H156  1  0.50000000  0.23086361  0.20408200  1
  H  H157  1  0.50000000  0.23729323  0.53992598  1
  H  H158  1  0.50000000  0.23842164  0.86854848  1
  H  H159  1  0.50000000  0.76382757  0.20480947  1
  H  H160  1  0.50000000  0.76470635  0.53965264  1
  H  H161  1  0.50000000  0.76435143  0.86844002  1
  H  H162  1  0.50000000  0.23084872  0.29580246  1
  H  H163  1  0.50000000  0.23838861  0.63163429  1
  H  H164  1  0.50000000  0.23736869  0.96027284  1
  H  H165  1  0.50000000  0.76384225  0.29489106  1
  H  H166  1  0.50000000  0.76430766  0.63167359  1
  H  H167  1  0.50000000  0.76474281  0.96031523  1
  H  H168  1  0.50000000  0.41641038  0.00582136  1
  H  H169  1  0.50000000  0.47076703  0.00818047  1
  H  H170  1  0.50000000  0.53101142  0.00919198  1
  H  H171  1  0.50000000  0.59151133  0.00933822  1
  H  H172  1  0.50000000  0.65020730  0.00898020  1
  H  H173  1  0.50000000  0.68808038  0.29011599  1
  H  H174  1  0.50000000  0.68967495  0.04364999  1
  H  H175  1  0.50000000  0.68893787  0.38023817  1
  H  H176  1  0.50000000  0.40019264  0.04952677  1
  H  H177  1  0.50000000  0.39683763  0.36440487  1
  H  H178  1  0.50000000  0.39694457  0.13538069  1
  H  H179  1  0.50000000  0.40027781  0.45008089  1
  H  H180  1  0.50000000  0.68893021  0.11944105  1
  H  H181  1  0.50000000  0.68969503  0.45625340  1
  H  H182  1  0.50000000  0.41605575  0.49419863  1
  H  H183  1  0.50000000  0.47066935  0.49173675  1
  H  H184  1  0.50000000  0.53106348  0.49081278  1
  H  H185  1  0.50000000  0.59155666  0.49074373  1
  H  H186  1  0.50000000  0.65015381  0.49107573  1
  H  H187  1  0.50000000  0.68805330  0.20956485  1
  H  H188  1  0.50000000  0.39635941  0.20420595  1
  H  H189  1  0.50000000  0.39636274  0.29565228  1
