# generated using pymatgen
data_H2C9
_symmetry_space_group_name_H-M   'P 1'
_cell_length_a   10.00000000
_cell_length_b   41.10890000
_cell_length_c   25.79442609
_cell_angle_alpha   90.00000000
_cell_angle_beta   90.00000000
_cell_angle_gamma   90.00000000
_symmetry_Int_Tables_number   1
_chemical_formula_structural   H2C9
_chemical_formula_sum   'H32 C144'
_cell_volume   10603.80482746
_cell_formula_units_Z   16
loop_
 _symmetry_equiv_pos_site_id
 _symmetry_equiv_pos_as_xyz
  1  'x, y, z'
loop_
 _atom_site_type_symbol
 _atom_site_label
 _atom_site_symmetry_multiplicity
 _atom_site_fract_x
 _atom_site_fract_y
 _atom_site_fract_z
 _atom_site_occupancy
  C  C0  1  0.50000000  0.28906251  0.63762987  1
  C  C1  1  0.50000000  0.29014739  0.97275804  1
  C  C2  1  0.50000000  0.34942017  0.63894051  1
  C  C3  1  0.50000000  0.35010730  0.97129493  1
  C  C4  1  0.50000000  0.40939062  0.63954171  1
  C  C5  1  0.50000000  0.40992739  0.97052488  1
  C  C6  1  0.50000000  0.46949540  0.63936591  1
  C  C7  1  0.50000000  0.46964206  0.96984248  1
  C  C8  1  0.50000000  0.53065179  0.30693222  1
  C  C9  1  0.50000000  0.52955609  0.63909576  1
  C  C10  1  0.50000000  0.53011734  0.97232881  1
  C  C11  1  0.50000000  0.59000319  0.30561862  1
  C  C12  1  0.50000000  0.58979947  0.63899064  1
  C  C13  1  0.50000000  0.59002938  0.97185322  1
  C  C14  1  0.50000000  0.65023163  0.30566751  1
  C  C15  1  0.50000000  0.65002361  0.63926445  1
  C  C16  1  0.50000000  0.65007857  0.97192606  1
  C  C17  1  0.50000000  0.70952581  0.30663026  1
  C  C18  1  0.50000000  0.71039333  0.63868126  1
  C  C19  1  0.50000000  0.70988771  0.97205078  1
  C  C20  1  0.50000000  0.28905978  0.69426254  1
  C  C21  1  0.50000000  0.34932383  0.69459554  1
  C  C22  1  0.50000000  0.40934587  0.69488705  1
  C  C23  1  0.50000000  0.46948813  0.69483397  1
  C  C24  1  0.50000000  0.53110718  0.02615882  1
  C  C25  1  0.50000000  0.53067872  0.36023711  1
  C  C26  1  0.50000000  0.52961539  0.69454333  1
  C  C27  1  0.50000000  0.59024444  0.02737601  1
  C  C28  1  0.50000000  0.59003264  0.36139463  1
  C  C29  1  0.50000000  0.58982864  0.69459972  1
  C  C30  1  0.50000000  0.65027396  0.02736483  1
  C  C31  1  0.50000000  0.65030555  0.36136871  1
  C  C32  1  0.50000000  0.65002961  0.69447440  1
  C  C33  1  0.50000000  0.70949639  0.02633003  1
  C  C34  1  0.50000000  0.70957987  0.35998053  1
  C  C35  1  0.50000000  0.71034178  0.69431717  1
  C  C36  1  0.50000000  0.26002340  0.72314264  1
  C  C37  1  0.50000000  0.31907249  0.72214400  1
  C  C38  1  0.50000000  0.37916619  0.72220999  1
  C  C39  1  0.50000000  0.43939718  0.72228443  1
  C  C40  1  0.50000000  0.49956478  0.72227958  1
  C  C41  1  0.50000000  0.56020329  0.05484141  1
  C  C42  1  0.50000000  0.56006380  0.38909113  1
  C  C43  1  0.50000000  0.55972418  0.72229257  1
  C  C44  1  0.50000000  0.62024680  0.05538375  1
  C  C45  1  0.50000000  0.62013644  0.38931086  1
  C  C46  1  0.50000000  0.61982298  0.72226655  1
  C  C47  1  0.50000000  0.68048521  0.05489978  1
  C  C48  1  0.50000000  0.68028766  0.38881703  1
  C  C49  1  0.50000000  0.68024322  0.72210999  1
  C  C50  1  0.50000000  0.73979781  0.72343326  1
  C  C51  1  0.50000000  0.26002330  0.77691440  1
  C  C52  1  0.50000000  0.31907341  0.77787261  1
  C  C53  1  0.50000000  0.37916575  0.77779993  1
  C  C54  1  0.50000000  0.43939551  0.77772341  1
  C  C55  1  0.50000000  0.49956390  0.77772092  1
  C  C56  1  0.50000000  0.56006129  0.11088576  1
  C  C57  1  0.50000000  0.56019576  0.44513806  1
  C  C58  1  0.50000000  0.55972937  0.77768968  1
  C  C59  1  0.50000000  0.62014443  0.11067153  1
  C  C60  1  0.50000000  0.62023797  0.44458530  1
  C  C61  1  0.50000000  0.61982516  0.77769830  1
  C  C62  1  0.50000000  0.68029949  0.11114106  1
  C  C63  1  0.50000000  0.68047778  0.44506000  1
  C  C64  1  0.50000000  0.68023362  0.77785104  1
  C  C65  1  0.50000000  0.73978489  0.77661013  1
  C  C66  1  0.50000000  0.28906527  0.80577142  1
  C  C67  1  0.50000000  0.34932570  0.80542243  1
  C  C68  1  0.50000000  0.40934390  0.80513170  1
  C  C69  1  0.50000000  0.46948521  0.80517724  1
  C  C70  1  0.50000000  0.53068657  0.13978013  1
  C  C71  1  0.50000000  0.53108687  0.47379660  1
  C  C72  1  0.50000000  0.52961883  0.80544773  1
  C  C73  1  0.50000000  0.59003267  0.13858375  1
  C  C74  1  0.50000000  0.59023566  0.47259670  1
  C  C75  1  0.50000000  0.58983663  0.80536880  1
  C  C76  1  0.50000000  0.65032077  0.13861065  1
  C  C77  1  0.50000000  0.65026493  0.47260041  1
  C  C78  1  0.50000000  0.65002970  0.80549145  1
  C  C79  1  0.50000000  0.70957322  0.14001191  1
  C  C80  1  0.50000000  0.70949211  0.47360663  1
  C  C81  1  0.50000000  0.71031649  0.80566881  1
  C  C82  1  0.50000000  0.29014057  0.52725886  1
  C  C83  1  0.50000000  0.28905653  0.86240048  1
  C  C84  1  0.50000000  0.35010896  0.52881006  1
  C  C85  1  0.50000000  0.34942278  0.86108410  1
  C  C86  1  0.50000000  0.40992377  0.52955627  1
  C  C87  1  0.50000000  0.40938629  0.86048530  1
  C  C88  1  0.50000000  0.46963270  0.53015450  1
  C  C89  1  0.50000000  0.46949004  0.86064727  1
  C  C90  1  0.50000000  0.53067171  0.19307756  1
  C  C91  1  0.50000000  0.53009951  0.52763569  1
  C  C92  1  0.50000000  0.52955705  0.86089249  1
  C  C93  1  0.50000000  0.59000548  0.19436074  1
  C  C94  1  0.50000000  0.59002408  0.52812041  1
  C  C95  1  0.50000000  0.58980596  0.86097234  1
  C  C96  1  0.50000000  0.65024634  0.19430889  1
  C  C97  1  0.50000000  0.65007743  0.52804019  1
  C  C98  1  0.50000000  0.65002424  0.86069726  1
  C  C99  1  0.50000000  0.70951066  0.19334739  1
  C  C100  1  0.50000000  0.70990022  0.52790852  1
  C  C101  1  0.50000000  0.71037520  0.86128699  1
  C  C102  1  0.50000000  0.26083217  0.55377354  1
  C  C103  1  0.50000000  0.26024705  0.89179145  1
  C  C104  1  0.50000000  0.32002563  0.55488896  1
  C  C105  1  0.50000000  0.31948718  0.88919952  1
  C  C106  1  0.50000000  0.37974661  0.55574827  1
  C  C107  1  0.50000000  0.37946767  0.88826614  1
  C  C108  1  0.50000000  0.43939808  0.55650625  1
  C  C109  1  0.50000000  0.43945629  0.88776427  1
  C  C110  1  0.50000000  0.49921407  0.55575977  1
  C  C111  1  0.50000000  0.49963700  0.88831985  1
  C  C112  1  0.50000000  0.56005122  0.22201997  1
  C  C113  1  0.50000000  0.56004258  0.55596237  1
  C  C114  1  0.50000000  0.55993386  0.88866851  1
  C  C115  1  0.50000000  0.62012063  0.22233820  1
  C  C116  1  0.50000000  0.61999425  0.55602969  1
  C  C117  1  0.50000000  0.61996884  0.88871764  1
  C  C118  1  0.50000000  0.68014301  0.22200591  1
  C  C119  1  0.50000000  0.67989931  0.55602328  1
  C  C120  1  0.50000000  0.68015367  0.88849886  1
  C  C121  1  0.50000000  0.73976258  0.55616463  1
  C  C122  1  0.50000000  0.73990287  0.89066189  1
  C  C123  1  0.50000000  0.26025819  0.60825111  1
  C  C124  1  0.50000000  0.26083855  0.94625521  1
  C  C125  1  0.50000000  0.31948539  0.61082662  1
  C  C126  1  0.50000000  0.32003721  0.94514979  1
  C  C127  1  0.50000000  0.37946936  0.61178875  1
  C  C128  1  0.50000000  0.37974492  0.94434193  1
  C  C129  1  0.50000000  0.43946240  0.61226728  1
  C  C130  1  0.50000000  0.43939438  0.94353731  1
  C  C131  1  0.50000000  0.49963545  0.61167422  1
  C  C132  1  0.50000000  0.49922172  0.94423102  1
  C  C133  1  0.50000000  0.56004193  0.27798935  1
  C  C134  1  0.50000000  0.55992797  0.61130039  1
  C  C135  1  0.50000000  0.56005408  0.94400541  1
  C  C136  1  0.50000000  0.62011086  0.27763767  1
  C  C137  1  0.50000000  0.61996281  0.61124531  1
  C  C138  1  0.50000000  0.61999719  0.94394247  1
  C  C139  1  0.50000000  0.68013765  0.27800219  1
  C  C140  1  0.50000000  0.68016459  0.61145928  1
  C  C141  1  0.50000000  0.67988983  0.94392924  1
  C  C142  1  0.50000000  0.73992601  0.60928808  1
  C  C143  1  0.50000000  0.73974135  0.94377499  1
  H  H144  1  0.50000000  0.23658643  0.70311257  1
  H  H145  1  0.50000000  0.76319967  0.70327948  1
  H  H146  1  0.50000000  0.23659470  0.79697481  1
  H  H147  1  0.50000000  0.76315427  0.79687531  1
  H  H148  1  0.50000000  0.23783006  0.53226194  1
  H  H149  1  0.50000000  0.23654864  0.87258060  1
  H  H150  1  0.50000000  0.76269264  0.53436480  1
  H  H151  1  0.50000000  0.76336273  0.87070921  1
  H  H152  1  0.50000000  0.23661477  0.62764611  1
  H  H153  1  0.50000000  0.23784752  0.96780897  1
  H  H154  1  0.50000000  0.76335085  0.62937240  1
  H  H155  1  0.50000000  0.76273553  0.96536419  1
  H  H156  1  0.50000000  0.29071246  0.01524490  1
  H  H157  1  0.50000000  0.35044067  0.01384436  1
  H  H158  1  0.50000000  0.41019365  0.01306382  1
  H  H159  1  0.50000000  0.46878143  0.01219799  1
  H  H160  1  0.50000000  0.50727952  0.28680411  1
  H  H161  1  0.50000000  0.73279404  0.28620305  1
  H  H162  1  0.50000000  0.50816257  0.04721589  1
  H  H163  1  0.50000000  0.50728395  0.38036812  1
  H  H164  1  0.50000000  0.73300377  0.04610268  1
  H  H165  1  0.50000000  0.73294471  0.38009199  1
  H  H166  1  0.50000000  0.50723602  0.11981924  1
  H  H167  1  0.50000000  0.50818024  0.45260313  1
  H  H168  1  0.50000000  0.73300371  0.12009508  1
  H  H169  1  0.50000000  0.73295886  0.45369693  1
  H  H170  1  0.50000000  0.29072601  0.48476687  1
  H  H171  1  0.50000000  0.35045109  0.48629742  1
  H  H172  1  0.50000000  0.41018705  0.48703140  1
  H  H173  1  0.50000000  0.46878045  0.48778025  1
  H  H174  1  0.50000000  0.50728740  0.21315799  1
  H  H175  1  0.50000000  0.73284162  0.21360150  1
