# generated using pymatgen
data_H16C63
_symmetry_space_group_name_H-M   'P 1'
_cell_length_a   20.00000000
_cell_length_b   37.22700000
_cell_length_c   26.15412354
_cell_angle_alpha   90.00000000
_cell_angle_beta   90.00000000
_cell_angle_gamma   90.00000000
_symmetry_Int_Tables_number   1
_chemical_formula_structural   H16C63
_chemical_formula_sum   'H32 C126'
_cell_volume   19472.79114260
_cell_formula_units_Z   2
loop_
 _symmetry_equiv_pos_site_id
 _symmetry_equiv_pos_as_xyz
  1  'x, y, z'
loop_
 _atom_site_type_symbol
 _atom_site_label
 _atom_site_symmetry_multiplicity
 _atom_site_fract_x
 _atom_site_fract_y
 _atom_site_fract_z
 _atom_site_occupancy
  C  C0  1  0.50000000  0.31617198  0.55766523  1
  C  C1  1  0.50000000  0.31616177  0.88624759  1
  C  C2  1  0.50000000  0.38244603  0.56184500  1
  C  C3  1  0.50000000  0.38290659  0.88409329  1
  C  C4  1  0.50000000  0.45171025  0.22380547  1
  C  C5  1  0.50000000  0.44938693  0.55761435  1
  C  C6  1  0.50000000  0.44996083  0.88710046  1
  C  C7  1  0.50000000  0.51717523  0.22254731  1
  C  C8  1  0.50000000  0.51609329  0.55493262  1
  C  C9  1  0.50000000  0.51624104  0.88911490  1
  C  C10  1  0.50000000  0.58269605  0.22249266  1
  C  C11  1  0.50000000  0.58378738  0.55479124  1
  C  C12  1  0.50000000  0.58301436  0.88923636  1
  C  C13  1  0.50000000  0.64811661  0.22377094  1
  C  C14  1  0.50000000  0.65089251  0.55727152  1
  C  C15  1  0.50000000  0.64942767  0.88761522  1
  C  C16  1  0.50000000  0.71753440  0.56464991  1
  C  C17  1  0.50000000  0.71583958  0.88275249  1
  C  C18  1  0.50000000  0.31615737  0.61384221  1
  C  C19  1  0.50000000  0.31619258  0.94244301  1
  C  C20  1  0.50000000  0.38289809  0.61598371  1
  C  C21  1  0.50000000  0.38246234  0.93825015  1
  C  C22  1  0.50000000  0.45172358  0.27633062  1
  C  C23  1  0.50000000  0.44995409  0.61291801  1
  C  C24  1  0.50000000  0.44939113  0.94239294  1
  C  C25  1  0.50000000  0.51715934  0.27753222  1
  C  C26  1  0.50000000  0.51623425  0.61087286  1
  C  C27  1  0.50000000  0.51609774  0.94506363  1
  C  C28  1  0.50000000  0.58268419  0.27753875  1
  C  C29  1  0.50000000  0.58300634  0.61072194  1
  C  C30  1  0.50000000  0.58379649  0.94517757  1
  C  C31  1  0.50000000  0.64809811  0.27633168  1
  C  C32  1  0.50000000  0.64942076  0.61234761  1
  C  C33  1  0.50000000  0.65092554  0.94269241  1
  C  C34  1  0.50000000  0.71582817  0.61710991  1
  C  C35  1  0.50000000  0.71757411  0.93521341  1
  C  C36  1  0.50000000  0.28385956  0.64138132  1
  C  C37  1  0.50000000  0.28547484  0.97228791  1
  C  C38  1  0.50000000  0.34921921  0.64177722  1
  C  C39  1  0.50000000  0.35038120  0.96618801  1
  C  C40  1  0.50000000  0.41656684  0.64109479  1
  C  C41  1  0.50000000  0.41523744  0.96406652  1
  C  C42  1  0.50000000  0.48430146  0.30452253  1
  C  C43  1  0.50000000  0.48333155  0.63950545  1
  C  C44  1  0.50000000  0.48274559  0.97247719  1
  C  C45  1  0.50000000  0.54992114  0.30590683  1
  C  C46  1  0.50000000  0.54953905  0.63838620  1
  C  C47  1  0.50000000  0.54995276  0.97275939  1
  C  C48  1  0.50000000  0.61554075  0.30459112  1
  C  C49  1  0.50000000  0.61566116  0.63917315  1
  C  C50  1  0.50000000  0.61733538  0.97255812  1
  C  C51  1  0.50000000  0.68217269  0.64108419  1
  C  C52  1  0.50000000  0.68612179  0.96337671  1
  C  C53  1  0.50000000  0.28378949  0.69427025  1
  C  C54  1  0.50000000  0.34941454  0.69609740  1
  C  C55  1  0.50000000  0.41664046  0.69589461  1
  C  C56  1  0.50000000  0.48324690  0.02849141  1
  C  C57  1  0.50000000  0.48481062  0.35943498  1
  C  C58  1  0.50000000  0.48333812  0.69488149  1
  C  C59  1  0.50000000  0.54987692  0.02779448  1
  C  C60  1  0.50000000  0.54994155  0.36080057  1
  C  C61  1  0.50000000  0.54936030  0.69396047  1
  C  C62  1  0.50000000  0.61649169  0.02848771  1
  C  C63  1  0.50000000  0.61511664  0.35957823  1
  C  C64  1  0.50000000  0.61513541  0.69442377  1
  C  C65  1  0.50000000  0.68122131  0.69608594  1
  C  C66  1  0.50000000  0.31600302  0.72248984  1
  C  C67  1  0.50000000  0.38326410  0.72278190  1
  C  C68  1  0.50000000  0.45242186  0.06095976  1
  C  C69  1  0.50000000  0.45270490  0.38692460  1
  C  C70  1  0.50000000  0.45008407  0.72266772  1
  C  C71  1  0.50000000  0.51665798  0.05580379  1
  C  C72  1  0.50000000  0.51701873  0.38859686  1
  C  C73  1  0.50000000  0.51632635  0.72224859  1
  C  C74  1  0.50000000  0.58309089  0.05576563  1
  C  C75  1  0.50000000  0.58285293  0.38861910  1
  C  C76  1  0.50000000  0.58223325  0.72207333  1
  C  C77  1  0.50000000  0.64745411  0.06058011  1
  C  C78  1  0.50000000  0.64727048  0.38715489  1
  C  C79  1  0.50000000  0.64810478  0.72262030  1
  C  C80  1  0.50000000  0.71356635  0.72374443  1
  C  C81  1  0.50000000  0.31600783  0.77758670  1
  C  C82  1  0.50000000  0.38326379  0.77726998  1
  C  C83  1  0.50000000  0.45272308  0.11310456  1
  C  C84  1  0.50000000  0.45242637  0.43906256  1
  C  C85  1  0.50000000  0.45008415  0.77735550  1
  C  C86  1  0.50000000  0.51700451  0.11142949  1
  C  C87  1  0.50000000  0.51668203  0.44420481  1
  C  C88  1  0.50000000  0.51633469  0.77775345  1
  C  C89  1  0.50000000  0.58286680  0.11139204  1
  C  C90  1  0.50000000  0.58310320  0.44422458  1
  C  C91  1  0.50000000  0.58225517  0.77788132  1
  C  C92  1  0.50000000  0.64728044  0.11277632  1
  C  C93  1  0.50000000  0.64748042  0.43935086  1
  C  C94  1  0.50000000  0.64815499  0.77736141  1
  C  C95  1  0.50000000  0.71362013  0.77602223  1
  C  C96  1  0.50000000  0.28379402  0.80580072  1
  C  C97  1  0.50000000  0.34941828  0.80397409  1
  C  C98  1  0.50000000  0.41664106  0.80414334  1
  C  C99  1  0.50000000  0.48480670  0.14064656  1
  C  C100  1  0.50000000  0.48326751  0.47150250  1
  C  C101  1  0.50000000  0.48334397  0.80512632  1
  C  C102  1  0.50000000  0.54994058  0.13921895  1
  C  C103  1  0.50000000  0.54989463  0.47221066  1
  C  C104  1  0.50000000  0.54937883  0.80601381  1
  C  C105  1  0.50000000  0.61515353  0.14045240  1
  C  C106  1  0.50000000  0.61651598  0.47147092  1
  C  C107  1  0.50000000  0.61517363  0.80551244  1
  C  C108  1  0.50000000  0.68130488  0.80379240  1
  C  C109  1  0.50000000  0.28546176  0.52780939  1
  C  C110  1  0.50000000  0.28385756  0.85870470  1
  C  C111  1  0.50000000  0.35036220  0.53391777  1
  C  C112  1  0.50000000  0.34922373  0.85830511  1
  C  C113  1  0.50000000  0.41521454  0.53601285  1
  C  C114  1  0.50000000  0.41656974  0.85895008  1
  C  C115  1  0.50000000  0.48429808  0.19558022  1
  C  C116  1  0.50000000  0.48274494  0.52751858  1
  C  C117  1  0.50000000  0.48333438  0.86050446  1
  C  C118  1  0.50000000  0.54992629  0.19411488  1
  C  C119  1  0.50000000  0.54994971  0.52723370  1
  C  C120  1  0.50000000  0.54954619  0.86158465  1
  C  C121  1  0.50000000  0.61557314  0.19545254  1
  C  C122  1  0.50000000  0.61732196  0.52740160  1
  C  C123  1  0.50000000  0.61567007  0.86077696  1
  C  C124  1  0.50000000  0.68606405  0.53655398  1
  C  C125  1  0.50000000  0.68218218  0.85881711  1
  H  H126  1  0.50000000  0.74335653  0.54454256  1
  H  H127  1  0.50000000  0.74066246  0.86078364  1
  H  H128  1  0.50000000  0.74073522  0.63886611  1
  H  H129  1  0.50000000  0.74342560  0.95521869  1
  H  H130  1  0.50000000  0.25812867  0.62115110  1
  H  H131  1  0.50000000  0.25823406  0.95663409  1
  H  H132  1  0.50000000  0.25786794  0.71391382  1
  H  H133  1  0.50000000  0.73950643  0.70447850  1
  H  H134  1  0.50000000  0.73965011  0.79503829  1
  H  H135  1  0.50000000  0.25791808  0.78602196  1
  H  H136  1  0.50000000  0.25815724  0.54322987  1
  H  H137  1  0.50000000  0.25814223  0.87899413  1
  H  H138  1  0.50000000  0.42583493  0.20413839  1
  H  H139  1  0.50000000  0.67397367  0.20406852  1
  H  H140  1  0.50000000  0.42590976  0.29614362  1
  H  H141  1  0.50000000  0.67389723  0.29619113  1
  H  H142  1  0.50000000  0.28805097  0.01405559  1
  H  H143  1  0.50000000  0.35174377  0.00809742  1
  H  H144  1  0.50000000  0.41085678  0.00418058  1
  H  H145  1  0.50000000  0.69188614  0.00336495  1
  H  H146  1  0.50000000  0.42527300  0.04797010  1
  H  H147  1  0.50000000  0.42671625  0.36756060  1
  H  H148  1  0.50000000  0.67421839  0.04603070  1
  H  H149  1  0.50000000  0.67319255  0.36765131  1
  H  H150  1  0.50000000  0.42668622  0.13229377  1
  H  H151  1  0.50000000  0.42534013  0.45227780  1
  H  H152  1  0.50000000  0.67324797  0.13213574  1
  H  H153  1  0.50000000  0.67428145  0.45375566  1
  H  H154  1  0.50000000  0.28814569  0.48609130  1
  H  H155  1  0.50000000  0.35173851  0.49202073  1
  H  H156  1  0.50000000  0.41071472  0.49594266  1
  H  H157  1  0.50000000  0.69182654  0.49658938  1
