# generated using pymatgen
data_H5C21
_symmetry_space_group_name_H-M   'P 1'
_cell_length_a   20.00000000
_cell_length_b   37.22700000
_cell_length_c   25.79618361
_cell_angle_alpha   90.00000000
_cell_angle_beta   90.00000000
_cell_angle_gamma   90.00000000
_symmetry_Int_Tables_number   1
_chemical_formula_structural   H5C21
_chemical_formula_sum   'H30 C126'
_cell_volume   19206.29054746
_cell_formula_units_Z   6
loop_
 _symmetry_equiv_pos_site_id
 _symmetry_equiv_pos_as_xyz
  1  'x, y, z'
loop_
 _atom_site_type_symbol
 _atom_site_label
 _atom_site_symmetry_multiplicity
 _atom_site_fract_x
 _atom_site_fract_y
 _atom_site_fract_z
 _atom_site_occupancy
  C  C0  1  0.50000000  0.31616435  0.55465310  1
  C  C1  1  0.50000000  0.31660439  0.88849674  1
  C  C2  1  0.50000000  0.38292776  0.55538170  1
  C  C3  1  0.50000000  0.38346429  0.88853837  1
  C  C4  1  0.50000000  0.45021448  0.22206299  1
  C  C5  1  0.50000000  0.45028642  0.55581820  1
  C  C6  1  0.50000000  0.45013896  0.88878921  1
  C  C7  1  0.50000000  0.51658277  0.22237629  1
  C  C8  1  0.50000000  0.51657416  0.55594113  1
  C  C9  1  0.50000000  0.51650348  0.88886914  1
  C  C10  1  0.50000000  0.58292182  0.22202104  1
  C  C11  1  0.50000000  0.58288432  0.55583052  1
  C  C12  1  0.50000000  0.58301738  0.88852897  1
  C  C13  1  0.50000000  0.64996137  0.55565708  1
  C  C14  1  0.50000000  0.64981581  0.88900407  1
  C  C15  1  0.50000000  0.71545249  0.55610420  1
  C  C16  1  0.50000000  0.71555710  0.88990696  1
  C  C17  1  0.50000000  0.31658646  0.61150476  1
  C  C18  1  0.50000000  0.31618228  0.94533620  1
  C  C19  1  0.50000000  0.38345063  0.61148326  1
  C  C20  1  0.50000000  0.38293252  0.94465173  1
  C  C21  1  0.50000000  0.45020958  0.27798548  1
  C  C22  1  0.50000000  0.45013171  0.61119827  1
  C  C23  1  0.50000000  0.45028899  0.94417309  1
  C  C24  1  0.50000000  0.51658499  0.27761000  1
  C  C25  1  0.50000000  0.51648903  0.61112491  1
  C  C26  1  0.50000000  0.51657673  0.94405691  1
  C  C27  1  0.50000000  0.58293256  0.27801797  1
  C  C28  1  0.50000000  0.58301333  0.61144952  1
  C  C29  1  0.50000000  0.58288726  0.94414344  1
  C  C30  1  0.50000000  0.64981092  0.61099499  1
  C  C31  1  0.50000000  0.64997237  0.94436309  1
  C  C32  1  0.50000000  0.71558500  0.61003291  1
  C  C33  1  0.50000000  0.71544876  0.94384845  1
  C  C34  1  0.50000000  0.28455736  0.64004418  1
  C  C35  1  0.50000000  0.28532256  0.97467981  1
  C  C36  1  0.50000000  0.34995238  0.63883423  1
  C  C37  1  0.50000000  0.35046719  0.97050681  1
  C  C38  1  0.50000000  0.41779336  0.30687754  1
  C  C39  1  0.50000000  0.41638254  0.63884139  1
  C  C40  1  0.50000000  0.41721829  0.97253332  1
  C  C41  1  0.50000000  0.48331926  0.30555621  1
  C  C42  1  0.50000000  0.48311285  0.63882854  1
  C  C43  1  0.50000000  0.48342372  0.97199001  1
  C  C44  1  0.50000000  0.54986045  0.30558779  1
  C  C45  1  0.50000000  0.54983135  0.63906339  1
  C  C46  1  0.50000000  0.54982929  0.97199472  1
  C  C47  1  0.50000000  0.61532960  0.30679900  1
  C  C48  1  0.50000000  0.61634630  0.63908143  1
  C  C49  1  0.50000000  0.61593075  0.97230952  1
  C  C50  1  0.50000000  0.68319973  0.63835220  1
  C  C51  1  0.50000000  0.68299402  0.97072590  1
  C  C52  1  0.50000000  0.28467209  0.69365157  1
  C  C53  1  0.50000000  0.35011503  0.69437446  1
  C  C54  1  0.50000000  0.41835356  0.02633923  1
  C  C55  1  0.50000000  0.41782074  0.36018524  1
  C  C56  1  0.50000000  0.41656004  0.69453667  1
  C  C57  1  0.50000000  0.48359107  0.02752722  1
  C  C58  1  0.50000000  0.48335146  0.36128186  1
  C  C59  1  0.50000000  0.48318892  0.69461162  1
  C  C60  1  0.50000000  0.54974770  0.02745826  1
  C  C61  1  0.50000000  0.54989185  0.36128323  1
  C  C62  1  0.50000000  0.54983846  0.69451730  1
  C  C63  1  0.50000000  0.61495789  0.02633743  1
  C  C64  1  0.50000000  0.61533038  0.36013761  1
  C  C65  1  0.50000000  0.61628019  0.69431212  1
  C  C66  1  0.50000000  0.68294848  0.69468667  1
  C  C67  1  0.50000000  0.31696821  0.72192430  1
  C  C68  1  0.50000000  0.38347434  0.72220363  1
  C  C69  1  0.50000000  0.45045097  0.05497404  1
  C  C70  1  0.50000000  0.45026925  0.38896967  1
  C  C71  1  0.50000000  0.44989696  0.72225664  1
  C  C72  1  0.50000000  0.51666602  0.05555842  1
  C  C73  1  0.50000000  0.51660891  0.38918721  1
  C  C74  1  0.50000000  0.51633157  0.72225442  1
  C  C75  1  0.50000000  0.58292908  0.05492186  1
  C  C76  1  0.50000000  0.58295666  0.38890880  1
  C  C77  1  0.50000000  0.58303991  0.72208062  1
  C  C78  1  0.50000000  0.64981351  0.72221862  1
  C  C79  1  0.50000000  0.71524640  0.72330951  1
  C  C80  1  0.50000000  0.31696963  0.77805640  1
  C  C81  1  0.50000000  0.38347510  0.77777670  1
  C  C82  1  0.50000000  0.45026127  0.11104259  1
  C  C83  1  0.50000000  0.45045166  0.44504124  1
  C  C84  1  0.50000000  0.44989747  0.77773085  1
  C  C85  1  0.50000000  0.51661176  0.11081013  1
  C  C86  1  0.50000000  0.51666132  0.44443193  1
  C  C87  1  0.50000000  0.51633636  0.77774852  1
  C  C88  1  0.50000000  0.58296891  0.11108330  1
  C  C89  1  0.50000000  0.58292214  0.44507103  1
  C  C90  1  0.50000000  0.58304615  0.77791932  1
  C  C91  1  0.50000000  0.64980901  0.77774242  1
  C  C92  1  0.50000000  0.71523712  0.77670997  1
  C  C93  1  0.50000000  0.28467990  0.80635868  1
  C  C94  1  0.50000000  0.35012118  0.80562157  1
  C  C95  1  0.50000000  0.41782797  0.13987862  1
  C  C96  1  0.50000000  0.41834220  0.47365602  1
  C  C97  1  0.50000000  0.41656217  0.80545756  1
  C  C98  1  0.50000000  0.48334786  0.13871415  1
  C  C99  1  0.50000000  0.48359016  0.47247311  1
  C  C100  1  0.50000000  0.48319124  0.80538410  1
  C  C101  1  0.50000000  0.54989859  0.13870844  1
  C  C102  1  0.50000000  0.54974346  0.47253685  1
  C  C103  1  0.50000000  0.54984557  0.80547453  1
  C  C104  1  0.50000000  0.61531943  0.13990588  1
  C  C105  1  0.50000000  0.61496967  0.47361775  1
  C  C106  1  0.50000000  0.61629249  0.80569049  1
  C  C107  1  0.50000000  0.68292713  0.80530089  1
  C  C108  1  0.50000000  0.28530532  0.52530184  1
  C  C109  1  0.50000000  0.28458104  0.85994990  1
  C  C110  1  0.50000000  0.35046285  0.52954485  1
  C  C111  1  0.50000000  0.34996694  0.86116790  1
  C  C112  1  0.50000000  0.41780725  0.19317715  1
  C  C113  1  0.50000000  0.41720451  0.52747193  1
  C  C114  1  0.50000000  0.41638288  0.86116159  1
  C  C115  1  0.50000000  0.48331611  0.19444197  1
  C  C116  1  0.50000000  0.48342319  0.52800598  1
  C  C117  1  0.50000000  0.48312491  0.86116911  1
  C  C118  1  0.50000000  0.54985993  0.19440918  1
  C  C119  1  0.50000000  0.54982658  0.52799944  1
  C  C120  1  0.50000000  0.54983994  0.86091911  1
  C  C121  1  0.50000000  0.61530252  0.19323070  1
  C  C122  1  0.50000000  0.61594406  0.52766654  1
  C  C123  1  0.50000000  0.61634888  0.86091718  1
  C  C124  1  0.50000000  0.68297192  0.52929547  1
  C  C125  1  0.50000000  0.68318215  0.86162040  1
  H  H126  1  0.50000000  0.74080558  0.53453095  1
  H  H127  1  0.50000000  0.74140693  0.86979478  1
  H  H128  1  0.50000000  0.74145126  0.63009895  1
  H  H129  1  0.50000000  0.74088148  0.96520036  1
  H  H130  1  0.50000000  0.25882216  0.61962146  1
  H  H131  1  0.50000000  0.25832476  0.95793166  1
  H  H132  1  0.50000000  0.25891048  0.71389591  1
  H  H133  1  0.50000000  0.74105461  0.70315463  1
  H  H134  1  0.50000000  0.74102979  0.79690630  1
  H  H135  1  0.50000000  0.25885730  0.78628935  1
  H  H136  1  0.50000000  0.25836201  0.54226701  1
  H  H137  1  0.50000000  0.25878992  0.88022964  1
  H  H138  1  0.50000000  0.28697659  0.01708354  1
  H  H139  1  0.50000000  0.34966886  0.01289687  1
  H  H140  1  0.50000000  0.39193869  0.28681512  1
  H  H141  1  0.50000000  0.64109938  0.28658370  1
  H  H142  1  0.50000000  0.68371080  0.01309727  1
  H  H143  1  0.50000000  0.39311486  0.04759979  1
  H  H144  1  0.50000000  0.39191078  0.38019863  1
  H  H145  1  0.50000000  0.64031418  0.04736224  1
  H  H146  1  0.50000000  0.64119061  0.38015083  1
  H  H147  1  0.50000000  0.39186012  0.12003412  1
  H  H148  1  0.50000000  0.39314763  0.45227084  1
  H  H149  1  0.50000000  0.64124696  0.12008729  1
  H  H150  1  0.50000000  0.64027634  0.45244076  1
  H  H151  1  0.50000000  0.28686577  0.48285514  1
  H  H152  1  0.50000000  0.34964729  0.48716554  1
  H  H153  1  0.50000000  0.39193012  0.21318695  1
  H  H154  1  0.50000000  0.64110806  0.21333563  1
  H  H155  1  0.50000000  0.68367682  0.48694319  1
