# generated using pymatgen
data_H17C72
_symmetry_space_group_name_H-M   'P 1'
_cell_length_a   10.00000000
_cell_length_b   41.10890000
_cell_length_c   26.16070037
_cell_angle_alpha   90.00000000
_cell_angle_beta   90.00000000
_cell_angle_gamma   90.00000000
_symmetry_Int_Tables_number   1
_chemical_formula_structural   H17C72
_chemical_formula_sum   'H34 C144'
_cell_volume   10754.37615549
_cell_formula_units_Z   2
loop_
 _symmetry_equiv_pos_site_id
 _symmetry_equiv_pos_as_xyz
  1  'x, y, z'
loop_
 _atom_site_type_symbol
 _atom_site_label
 _atom_site_symmetry_multiplicity
 _atom_site_fract_x
 _atom_site_fract_y
 _atom_site_fract_z
 _atom_site_occupancy
  C  C0  1  0.50000000  0.28843325  0.63966913  1
  C  C1  1  0.50000000  0.28975921  0.96874392  1
  C  C2  1  0.50000000  0.34886607  0.64203517  1
  C  C3  1  0.50000000  0.34962949  0.96587572  1
  C  C4  1  0.50000000  0.40974403  0.64132404  1
  C  C5  1  0.50000000  0.40837725  0.96381206  1
  C  C6  1  0.50000000  0.47060536  0.30449286  1
  C  C7  1  0.50000000  0.47009244  0.63963102  1
  C  C8  1  0.50000000  0.46927375  0.97243423  1
  C  C9  1  0.50000000  0.52996793  0.30592878  1
  C  C10  1  0.50000000  0.53008817  0.63840776  1
  C  C11  1  0.50000000  0.53004271  0.97273921  1
  C  C12  1  0.50000000  0.58933413  0.30445479  1
  C  C13  1  0.50000000  0.59005323  0.63954639  1
  C  C14  1  0.50000000  0.59080899  0.97256678  1
  C  C15  1  0.50000000  0.65036219  0.64102479  1
  C  C16  1  0.50000000  0.65175965  0.96415860  1
  C  C17  1  0.50000000  0.71151403  0.64122091  1
  C  C18  1  0.50000000  0.71084487  0.96668757  1
  C  C19  1  0.50000000  0.28848119  0.69527797  1
  C  C20  1  0.50000000  0.34902106  0.69633266  1
  C  C21  1  0.50000000  0.40981718  0.69582620  1
  C  C22  1  0.50000000  0.46960213  0.02849419  1
  C  C23  1  0.50000000  0.47104433  0.35941270  1
  C  C24  1  0.50000000  0.47013250  0.69490281  1
  C  C25  1  0.50000000  0.53000843  0.02780393  1
  C  C26  1  0.50000000  0.52997657  0.36082113  1
  C  C27  1  0.50000000  0.53009624  0.69415952  1
  C  C28  1  0.50000000  0.59041237  0.02858699  1
  C  C29  1  0.50000000  0.58890455  0.35934409  1
  C  C30  1  0.50000000  0.58999956  0.69474889  1
  C  C31  1  0.50000000  0.65016526  0.69569725  1
  C  C32  1  0.50000000  0.71102909  0.69626612  1
  C  C33  1  0.50000000  0.25935687  0.72349017  1
  C  C34  1  0.50000000  0.31853460  0.72271850  1
  C  C35  1  0.50000000  0.37939435  0.72268390  1
  C  C36  1  0.50000000  0.44166736  0.06103316  1
  C  C37  1  0.50000000  0.44198154  0.38688329  1
  C  C38  1  0.50000000  0.44010175  0.72258541  1
  C  C39  1  0.50000000  0.49988578  0.05578833  1
  C  C40  1  0.50000000  0.50017572  0.38863094  1
  C  C41  1  0.50000000  0.50019082  0.72228899  1
  C  C42  1  0.50000000  0.56009996  0.05581812  1
  C  C43  1  0.50000000  0.55978494  0.38858679  1
  C  C44  1  0.50000000  0.55995764  0.72221029  1
  C  C45  1  0.50000000  0.61831534  0.06118858  1
  C  C46  1  0.50000000  0.61799232  0.38675983  1
  C  C47  1  0.50000000  0.62007276  0.72251108  1
  C  C48  1  0.50000000  0.68061566  0.72272398  1
  C  C49  1  0.50000000  0.74033383  0.72373088  1
  C  C50  1  0.50000000  0.25935498  0.77637631  1
  C  C51  1  0.50000000  0.31853597  0.77719599  1
  C  C52  1  0.50000000  0.37939548  0.77729714  1
  C  C53  1  0.50000000  0.44198536  0.11318306  1
  C  C54  1  0.50000000  0.44168834  0.43902838  1
  C  C55  1  0.50000000  0.44010456  0.77742745  1
  C  C56  1  0.50000000  0.50017671  0.11142223  1
  C  C57  1  0.50000000  0.49989372  0.44423405  1
  C  C58  1  0.50000000  0.50020091  0.77773410  1
  C  C59  1  0.50000000  0.55978609  0.11145226  1
  C  C60  1  0.50000000  0.56007689  0.44418979  1
  C  C61  1  0.50000000  0.55997216  0.77777774  1
  C  C62  1  0.50000000  0.61799418  0.11331102  1
  C  C63  1  0.50000000  0.61827809  0.43887058  1
  C  C64  1  0.50000000  0.62010985  0.77756248  1
  C  C65  1  0.50000000  0.68064113  0.77728374  1
  C  C66  1  0.50000000  0.74035133  0.77625367  1
  C  C67  1  0.50000000  0.28847655  0.80460197  1
  C  C68  1  0.50000000  0.34901716  0.80361877  1
  C  C69  1  0.50000000  0.40981646  0.80417724  1
  C  C70  1  0.50000000  0.47104739  0.14065416  1
  C  C71  1  0.50000000  0.46962641  0.47152666  1
  C  C72  1  0.50000000  0.47013630  0.80511591  1
  C  C73  1  0.50000000  0.52997746  0.13922080  1
  C  C74  1  0.50000000  0.53000217  0.47220513  1
  C  C75  1  0.50000000  0.53011642  0.80585162  1
  C  C76  1  0.50000000  0.58890423  0.14071505  1
  C  C77  1  0.50000000  0.59036838  0.47142630  1
  C  C78  1  0.50000000  0.59002736  0.80523027  1
  C  C79  1  0.50000000  0.65020771  0.80433232  1
  C  C80  1  0.50000000  0.71105705  0.80374052  1
  C  C81  1  0.50000000  0.28982209  0.53114139  1
  C  C82  1  0.50000000  0.28843010  0.86020826  1
  C  C83  1  0.50000000  0.34967825  0.53407401  1
  C  C84  1  0.50000000  0.34886299  0.85792284  1
  C  C85  1  0.50000000  0.40838544  0.53618018  1
  C  C86  1  0.50000000  0.40974404  0.85867761  1
  C  C87  1  0.50000000  0.47060585  0.19557510  1
  C  C88  1  0.50000000  0.46928180  0.52757080  1
  C  C89  1  0.50000000  0.47010006  0.86038665  1
  C  C90  1  0.50000000  0.52997338  0.19411639  1
  C  C91  1  0.50000000  0.53003960  0.52726752  1
  C  C92  1  0.50000000  0.53010776  0.86160154  1
  C  C93  1  0.50000000  0.58934687  0.19560853  1
  C  C94  1  0.50000000  0.59079406  0.52742792  1
  C  C95  1  0.50000000  0.59006466  0.86043994  1
  C  C96  1  0.50000000  0.65177164  0.53582726  1
  C  C97  1  0.50000000  0.65039253  0.85899562  1
  C  C98  1  0.50000000  0.71083931  0.53332216  1
  C  C99  1  0.50000000  0.71153558  0.85879080  1
  C  C100  1  0.50000000  0.26036103  0.55681925  1
  C  C101  1  0.50000000  0.25964121  0.88933234  1
  C  C102  1  0.50000000  0.31947377  0.55890294  1
  C  C103  1  0.50000000  0.31896569  0.88602083  1
  C  C104  1  0.50000000  0.37874445  0.56201082  1
  C  C105  1  0.50000000  0.37902357  0.88388223  1
  C  C106  1  0.50000000  0.44111550  0.22378672  1
  C  C107  1  0.50000000  0.43922297  0.55781665  1
  C  C108  1  0.50000000  0.43984253  0.88683821  1
  C  C109  1  0.50000000  0.50035411  0.22253944  1
  C  C110  1  0.50000000  0.49948643  0.55498476  1
  C  C111  1  0.50000000  0.49988281  0.88906698  1
  C  C112  1  0.50000000  0.55958915  0.22253545  1
  C  C113  1  0.50000000  0.56061927  0.55489412  1
  C  C114  1  0.50000000  0.56030208  0.88909884  1
  C  C115  1  0.50000000  0.61885327  0.22380416  1
  C  C116  1  0.50000000  0.62094228  0.55759714  1
  C  C117  1  0.50000000  0.62039249  0.88704323  1
  C  C118  1  0.50000000  0.68142007  0.56155850  1
  C  C119  1  0.50000000  0.68115240  0.88453194  1
  C  C120  1  0.50000000  0.74027076  0.55897315  1
  C  C121  1  0.50000000  0.74049060  0.88745983  1
  C  C122  1  0.50000000  0.25965580  0.61049752  1
  C  C123  1  0.50000000  0.26031155  0.94301172  1
  C  C124  1  0.50000000  0.31898169  0.61389815  1
  C  C125  1  0.50000000  0.31943063  0.94101500  1
  C  C126  1  0.50000000  0.37902899  0.61610517  1
  C  C127  1  0.50000000  0.37872561  0.93798956  1
  C  C128  1  0.50000000  0.44112330  0.27629190  1
  C  C129  1  0.50000000  0.43983738  0.61316185  1
  C  C130  1  0.50000000  0.43921264  0.94218120  1
  C  C131  1  0.50000000  0.50034970  0.27751089  1
  C  C132  1  0.50000000  0.49986879  0.61094101  1
  C  C133  1  0.50000000  0.49948759  0.94502712  1
  C  C134  1  0.50000000  0.55958263  0.27750311  1
  C  C135  1  0.50000000  0.56028414  0.61090697  1
  C  C136  1  0.50000000  0.56062795  0.94511608  1
  C  C137  1  0.50000000  0.61884409  0.27629619  1
  C  C138  1  0.50000000  0.62038166  0.61293464  1
  C  C139  1  0.50000000  0.62094040  0.94237033  1
  C  C140  1  0.50000000  0.68112912  0.61549086  1
  C  C141  1  0.50000000  0.68142252  0.93846362  1
  C  C142  1  0.50000000  0.74047351  0.61255141  1
  C  C143  1  0.50000000  0.74027629  0.94103379  1
  H  H144  1  0.50000000  0.23593776  0.70371098  1
  H  H145  1  0.50000000  0.76362163  0.70363951  1
  H  H146  1  0.50000000  0.23593093  0.79614040  1
  H  H147  1  0.50000000  0.76365675  0.79629388  1
  H  H148  1  0.50000000  0.23745058  0.53531725  1
  H  H149  1  0.50000000  0.23597020  0.87028154  1
  H  H150  1  0.50000000  0.76330251  0.53787528  1
  H  H151  1  0.50000000  0.76405749  0.86815730  1
  H  H152  1  0.50000000  0.23595183  0.62944862  1
  H  H153  1  0.50000000  0.23739138  0.96448612  1
  H  H154  1  0.50000000  0.76403467  0.63187469  1
  H  H155  1  0.50000000  0.76331746  0.96210435  1
  H  H156  1  0.50000000  0.29071957  0.01061919  1
  H  H157  1  0.50000000  0.35058143  0.00779663  1
  H  H158  1  0.50000000  0.40443296  0.00389728  1
  H  H159  1  0.50000000  0.65560990  0.00425919  1
  H  H160  1  0.50000000  0.70973270  0.00860350  1
  H  H161  1  0.50000000  0.41703147  0.04818814  1
  H  H162  1  0.50000000  0.41848417  0.36744011  1
  H  H163  1  0.50000000  0.64294578  0.04838992  1
  H  H164  1  0.50000000  0.64151073  0.36733994  1
  H  H165  1  0.50000000  0.41849551  0.13265739  1
  H  H166  1  0.50000000  0.41708670  0.45198691  1
  H  H167  1  0.50000000  0.64149991  0.13277348  1
  H  H168  1  0.50000000  0.64288044  0.45176620  1
  H  H169  1  0.50000000  0.29080678  0.48927492  1
  H  H170  1  0.50000000  0.35067575  0.49215428  1
  H  H171  1  0.50000000  0.40436545  0.49611036  1
  H  H172  1  0.50000000  0.65567610  0.49572652  1
  H  H173  1  0.50000000  0.70970115  0.49140014  1
  H  H174  1  0.50000000  0.41768732  0.20414091  1
  H  H175  1  0.50000000  0.64229540  0.20417624  1
  H  H176  1  0.50000000  0.41772469  0.29599759  1
  H  H177  1  0.50000000  0.64227001  0.29595038  1
