# generated using pymatgen
data_H23C72
_symmetry_space_group_name_H-M   'P 1'
_cell_length_a   10.00000000
_cell_length_b   41.10890000
_cell_length_c   26.09336609
_cell_angle_alpha   90.00000000
_cell_angle_beta   90.00000000
_cell_angle_gamma   90.00000000
_symmetry_Int_Tables_number   1
_chemical_formula_structural   H23C72
_chemical_formula_sum   'H46 C144'
_cell_volume   10726.69577144
_cell_formula_units_Z   2
loop_
 _symmetry_equiv_pos_site_id
 _symmetry_equiv_pos_as_xyz
  1  'x, y, z'
loop_
 _atom_site_type_symbol
 _atom_site_label
 _atom_site_symmetry_multiplicity
 _atom_site_fract_x
 _atom_site_fract_y
 _atom_site_fract_z
 _atom_site_occupancy
  C  C0  1  0.50000000  0.28971665  0.30545473  1
  C  C1  1  0.50000000  0.28722133  0.63868160  1
  C  C2  1  0.50000000  0.28752239  0.97202909  1
  C  C3  1  0.50000000  0.34892110  0.30766468  1
  C  C4  1  0.50000000  0.34737462  0.63965944  1
  C  C5  1  0.50000000  0.34740509  0.97137198  1
  C  C6  1  0.50000000  0.40738119  0.64038664  1
  C  C7  1  0.50000000  0.40781097  0.96758847  1
  C  C8  1  0.50000000  0.46759890  0.64081983  1
  C  C9  1  0.50000000  0.46747961  0.96772615  1
  C  C10  1  0.50000000  0.52754924  0.64072887  1
  C  C11  1  0.50000000  0.52746377  0.96794315  1
  C  C12  1  0.50000000  0.58742643  0.64113304  1
  C  C13  1  0.50000000  0.58747304  0.96757484  1
  C  C14  1  0.50000000  0.64774460  0.64006518  1
  C  C15  1  0.50000000  0.64688719  0.96733576  1
  C  C16  1  0.50000000  0.72710106  0.30510462  1
  C  C17  1  0.50000000  0.70761937  0.63969070  1
  C  C18  1  0.50000000  0.70864695  0.97185406  1
  C  C19  1  0.50000000  0.28786544  0.02764630  1
  C  C20  1  0.50000000  0.28932648  0.36120261  1
  C  C21  1  0.50000000  0.28708779  0.69449837  1
  C  C22  1  0.50000000  0.34700393  0.02473871  1
  C  C23  1  0.50000000  0.34852589  0.36059126  1
  C  C24  1  0.50000000  0.34722868  0.69456187  1
  C  C25  1  0.50000000  0.40724310  0.69528981  1
  C  C26  1  0.50000000  0.46746268  0.69561064  1
  C  C27  1  0.50000000  0.52754607  0.69552272  1
  C  C28  1  0.50000000  0.58757156  0.69574039  1
  C  C29  1  0.50000000  0.64773874  0.69512446  1
  C  C30  1  0.50000000  0.71341040  0.02819345  1
  C  C31  1  0.50000000  0.72431833  0.36132635  1
  C  C32  1  0.50000000  0.70772685  0.69527999  1
  C  C33  1  0.50000000  0.25890089  0.05759424  1
  C  C34  1  0.50000000  0.25962408  0.38959848  1
  C  C35  1  0.50000000  0.25787290  0.72328800  1
  C  C36  1  0.50000000  0.31821366  0.05435406  1
  C  C37  1  0.50000000  0.31902022  0.38940198  1
  C  C38  1  0.50000000  0.31704163  0.72220718  1
  C  C39  1  0.50000000  0.37721126  0.72241968  1
  C  C40  1  0.50000000  0.43737431  0.72260132  1
  C  C41  1  0.50000000  0.49749027  0.72269243  1
  C  C42  1  0.50000000  0.55748687  0.72272216  1
  C  C43  1  0.50000000  0.61782296  0.72255000  1
  C  C44  1  0.50000000  0.68804535  0.06454096  1
  C  C45  1  0.50000000  0.69323748  0.38351535  1
  C  C46  1  0.50000000  0.67778889  0.72265466  1
  C  C47  1  0.50000000  0.74502156  0.05064840  1
  C  C48  1  0.50000000  0.75039496  0.39640841  1
  C  C49  1  0.50000000  0.73694228  0.72355260  1
  C  C50  1  0.50000000  0.25960049  0.11035263  1
  C  C51  1  0.50000000  0.25897701  0.44235098  1
  C  C52  1  0.50000000  0.25785488  0.77632518  1
  C  C53  1  0.50000000  0.31898360  0.11045111  1
  C  C54  1  0.50000000  0.31829259  0.44546677  1
  C  C55  1  0.50000000  0.31702149  0.77758665  1
  C  C56  1  0.50000000  0.37719436  0.77743832  1
  C  C57  1  0.50000000  0.43736978  0.77732418  1
  C  C58  1  0.50000000  0.49748875  0.77731279  1
  C  C59  1  0.50000000  0.55749118  0.77740353  1
  C  C60  1  0.50000000  0.61780828  0.77759636  1
  C  C61  1  0.50000000  0.69324901  0.11672933  1
  C  C62  1  0.50000000  0.68823156  0.43574650  1
  C  C63  1  0.50000000  0.67777919  0.77754242  1
  C  C64  1  0.50000000  0.75039384  0.10349341  1
  C  C65  1  0.50000000  0.74520928  0.44929498  1
  C  C66  1  0.50000000  0.73693052  0.77654564  1
  C  C67  1  0.50000000  0.28930847  0.13872096  1
  C  C68  1  0.50000000  0.28796565  0.47218945  1
  C  C69  1  0.50000000  0.28704240  0.80523173  1
  C  C70  1  0.50000000  0.34848351  0.13929912  1
  C  C71  1  0.50000000  0.34707509  0.47506887  1
  C  C72  1  0.50000000  0.34720905  0.80527565  1
  C  C73  1  0.50000000  0.40722515  0.80459162  1
  C  C74  1  0.50000000  0.46744937  0.80434991  1
  C  C75  1  0.50000000  0.52753610  0.80453169  1
  C  C76  1  0.50000000  0.58757051  0.80442396  1
  C  C77  1  0.50000000  0.64771649  0.80503468  1
  C  C78  1  0.50000000  0.72436376  0.13873077  1
  C  C79  1  0.50000000  0.71364255  0.47196640  1
  C  C80  1  0.50000000  0.70773445  0.80486506  1
  C  C81  1  0.50000000  0.28969686  0.19448332  1
  C  C82  1  0.50000000  0.28759446  0.52777486  1
  C  C83  1  0.50000000  0.28717591  0.86107228  1
  C  C84  1  0.50000000  0.34888773  0.19222193  1
  C  C85  1  0.50000000  0.34748193  0.52845398  1
  C  C86  1  0.50000000  0.34734853  0.86018543  1
  C  C87  1  0.50000000  0.40788079  0.53238143  1
  C  C88  1  0.50000000  0.40734606  0.85951558  1
  C  C89  1  0.50000000  0.46754539  0.53225328  1
  C  C90  1  0.50000000  0.46756501  0.85914502  1
  C  C91  1  0.50000000  0.52753763  0.53207377  1
  C  C92  1  0.50000000  0.52753912  0.85932297  1
  C  C93  1  0.50000000  0.58752796  0.53261452  1
  C  C94  1  0.50000000  0.58744162  0.85903046  1
  C  C95  1  0.50000000  0.64691647  0.53286727  1
  C  C96  1  0.50000000  0.64773781  0.86008262  1
  C  C97  1  0.50000000  0.72697232  0.19497004  1
  C  C98  1  0.50000000  0.70877511  0.52830643  1
  C  C99  1  0.50000000  0.70762501  0.86047077  1
  C  C100  1  0.50000000  0.26036621  0.22364464  1
  C  C101  1  0.50000000  0.25812214  0.55655346  1
  C  C102  1  0.50000000  0.25791964  0.89036866  1
  C  C103  1  0.50000000  0.31974999  0.22197680  1
  C  C104  1  0.50000000  0.31732017  0.55613347  1
  C  C105  1  0.50000000  0.31707708  0.88833824  1
  C  C106  1  0.50000000  0.37812764  0.55718211  1
  C  C107  1  0.50000000  0.37738934  0.88731949  1
  C  C108  1  0.50000000  0.43793362  0.55878821  1
  C  C109  1  0.50000000  0.43753865  0.88614898  1
  C  C110  1  0.50000000  0.49760101  0.55827166  1
  C  C111  1  0.50000000  0.49746313  0.88638897  1
  C  C112  1  0.50000000  0.55744013  0.55836219  1
  C  C113  1  0.50000000  0.55746704  0.88633902  1
  C  C114  1  0.50000000  0.61724825  0.55942795  1
  C  C115  1  0.50000000  0.61747872  0.88595971  1
  C  C116  1  0.50000000  0.69798326  0.22377360  1
  C  C117  1  0.50000000  0.67783144  0.55595303  1
  C  C118  1  0.50000000  0.67787014  0.88823599  1
  C  C119  1  0.50000000  0.75627556  0.22308140  1
  C  C120  1  0.50000000  0.73698656  0.55864884  1
  C  C121  1  0.50000000  0.73681022  0.88849503  1
  C  C122  1  0.50000000  0.26037986  0.27633474  1
  C  C123  1  0.50000000  0.25797733  0.60937060  1
  C  C124  1  0.50000000  0.25806339  0.94321721  1
  C  C125  1  0.50000000  0.31976448  0.27795010  1
  C  C126  1  0.50000000  0.31712795  0.61146223  1
  C  C127  1  0.50000000  0.31724968  0.94367409  1
  C  C128  1  0.50000000  0.37742763  0.61258756  1
  C  C129  1  0.50000000  0.37806220  0.94274857  1
  C  C130  1  0.50000000  0.43758441  0.61379040  1
  C  C131  1  0.50000000  0.43786951  0.94116484  1
  C  C132  1  0.50000000  0.49749801  0.61359348  1
  C  C133  1  0.50000000  0.49753708  0.94169741  1
  C  C134  1  0.50000000  0.55747536  0.61376425  1
  C  C135  1  0.50000000  0.55739778  0.94174388  1
  C  C136  1  0.50000000  0.61747389  0.61424850  1
  C  C137  1  0.50000000  0.61721100  0.94079529  1
  C  C138  1  0.50000000  0.69809183  0.27643942  1
  C  C139  1  0.50000000  0.67788375  0.61188746  1
  C  C140  1  0.50000000  0.67777048  0.94416072  1
  C  C141  1  0.50000000  0.75635649  0.27681211  1
  C  C142  1  0.50000000  0.73682539  0.61173336  1
  C  C143  1  0.50000000  0.73688772  0.94155056  1
  H  H144  1  0.50000000  0.23516777  0.03866532  1
  H  H145  1  0.50000000  0.23637279  0.36926488  1
  H  H146  1  0.50000000  0.23437515  0.70358878  1
  H  H147  1  0.50000000  0.76675176  0.02649955  1
  H  H148  1  0.50000000  0.77552598  0.38239529  1
  H  H149  1  0.50000000  0.76042118  0.70392243  1
  H  H150  1  0.50000000  0.23634779  0.13068095  1
  H  H151  1  0.50000000  0.23532843  0.46153250  1
  H  H152  1  0.50000000  0.23430689  0.79586065  1
  H  H153  1  0.50000000  0.77565270  0.11695062  1
  H  H154  1  0.50000000  0.76707647  0.47308870  1
  H  H155  1  0.50000000  0.76044002  0.79608823  1
  H  H156  1  0.50000000  0.23682817  0.20414059  1
  H  H157  1  0.50000000  0.23466041  0.53676792  1
  H  H158  1  0.50000000  0.23440811  0.87067814  1
  H  H159  1  0.50000000  0.77963150  0.20277422  1
  H  H160  1  0.50000000  0.76076997  0.54013386  1
  H  H161  1  0.50000000  0.76029168  0.86888502  1
  H  H162  1  0.50000000  0.23687517  0.29595150  1
  H  H163  1  0.50000000  0.23440672  0.62884714  1
  H  H164  1  0.50000000  0.23468016  0.96323682  1
  H  H165  1  0.50000000  0.77984564  0.29668648  1
  H  H166  1  0.50000000  0.76021772  0.63162258  1
  H  H167  1  0.50000000  0.76067342  0.96000283  1
  H  H168  1  0.50000000  0.37260530  0.28845631  1
  H  H169  1  0.50000000  0.40910866  0.00945389  1
  H  H170  1  0.50000000  0.46725277  0.00977707  1
  H  H171  1  0.50000000  0.52737169  0.00996814  1
  H  H172  1  0.50000000  0.58774605  0.00963897  1
  H  H173  1  0.50000000  0.64389152  0.00834710  1
  H  H174  1  0.50000000  0.37017320  0.04508537  1
  H  H175  1  0.50000000  0.37195617  0.38053545  1
  H  H176  1  0.50000000  0.66264259  0.05432617  1
  H  H177  1  0.50000000  0.67123413  0.36021404  1
  H  H178  1  0.50000000  0.67138899  0.14036645  1
  H  H179  1  0.50000000  0.66290905  0.44637388  1
  H  H180  1  0.50000000  0.37195863  0.11951311  1
  H  H181  1  0.50000000  0.37026755  0.45480537  1
  H  H182  1  0.50000000  0.37259864  0.21134832  1
  H  H183  1  0.50000000  0.40919930  0.49053921  1
  H  H184  1  0.50000000  0.46731762  0.49021719  1
  H  H185  1  0.50000000  0.52747034  0.49004623  1
  H  H186  1  0.50000000  0.58781777  0.49058661  1
  H  H187  1  0.50000000  0.64379062  0.49190098  1
  H  H188  1  0.50000000  0.67415221  0.20545197  1
  H  H189  1  0.50000000  0.67443744  0.29529740  1
