# generated using pymatgen
data_H8C33
_symmetry_space_group_name_H-M   'P 1'
_cell_length_a   20.00000000
_cell_length_b   40.19450000
_cell_length_c   26.02832542
_cell_angle_alpha   90.00000000
_cell_angle_beta   90.00000000
_cell_angle_gamma   90.00000000
_symmetry_Int_Tables_number   1
_chemical_formula_structural   H8C33
_chemical_formula_sum   'H32 C132'
_cell_volume   20923.91052450
_cell_formula_units_Z   4
loop_
 _symmetry_equiv_pos_site_id
 _symmetry_equiv_pos_as_xyz
  1  'x, y, z'
loop_
 _atom_site_type_symbol
 _atom_site_label
 _atom_site_symmetry_multiplicity
 _atom_site_fract_x
 _atom_site_fract_y
 _atom_site_fract_z
 _atom_site_occupancy
  C  C0  1  0.50000000  0.28368389  0.10784400  1
  C  C1  1  0.50000000  0.28668033  0.61081355  1
  C  C2  1  0.50000000  0.28283090  0.27654534  1
  C  C3  1  0.50000000  0.28710978  0.77634296  1
  C  C4  1  0.50000000  0.28460308  0.44483537  1
  C  C5  1  0.50000000  0.28625845  0.94175655  1
  C  C6  1  0.50000000  0.31315461  0.13790225  1
  C  C7  1  0.50000000  0.31684522  0.63884985  1
  C  C8  1  0.50000000  0.31272733  0.30579920  1
  C  C9  1  0.50000000  0.31692009  0.80492591  1
  C  C10  1  0.50000000  0.31492985  0.47293965  1
  C  C11  1  0.50000000  0.31592793  0.97095082  1
  C  C12  1  0.50000000  0.28470470  0.05478112  1
  C  C13  1  0.50000000  0.28620498  0.55791007  1
  C  C14  1  0.50000000  0.28280920  0.22335229  1
  C  C15  1  0.50000000  0.28714365  0.72322972  1
  C  C16  1  0.50000000  0.28368708  0.39176191  1
  C  C17  1  0.50000000  0.28671301  0.88884967  1
  C  C18  1  0.50000000  0.34405170  0.11063037  1
  C  C19  1  0.50000000  0.34726869  0.61105085  1
  C  C20  1  0.50000000  0.34319278  0.27777366  1
  C  C21  1  0.50000000  0.34764377  0.77755008  1
  C  C22  1  0.50000000  0.34511476  0.44470115  1
  C  C23  1  0.50000000  0.34693799  0.94400712  1
  C  C24  1  0.50000000  0.37444349  0.13909275  1
  C  C25  1  0.50000000  0.37838015  0.63857069  1
  C  C26  1  0.50000000  0.37397782  0.30569433  1
  C  C27  1  0.50000000  0.37834185  0.80559656  1
  C  C28  1  0.50000000  0.37632777  0.47224905  1
  C  C29  1  0.50000000  0.37757072  0.97246098  1
  C  C30  1  0.50000000  0.31500888  0.02672346  1
  C  C31  1  0.50000000  0.31587217  0.52872467  1
  C  C32  1  0.50000000  0.31269106  0.19401198  1
  C  C33  1  0.50000000  0.31695672  0.69468127  1
  C  C34  1  0.50000000  0.31319795  0.36185646  1
  C  C35  1  0.50000000  0.31686143  0.86076119  1
  C  C36  1  0.50000000  0.34516204  0.05503450  1
  C  C37  1  0.50000000  0.34689583  0.55570271  1
  C  C38  1  0.50000000  0.34317566  0.22201906  1
  C  C39  1  0.50000000  0.34766895  0.72207345  1
  C  C40  1  0.50000000  0.34407133  0.38914217  1
  C  C41  1  0.50000000  0.34729981  0.88862653  1
  C  C42  1  0.50000000  0.40539383  0.11171470  1
  C  C43  1  0.50000000  0.40882416  0.61077275  1
  C  C44  1  0.50000000  0.40440342  0.27737835  1
  C  C45  1  0.50000000  0.40883726  0.77766039  1
  C  C46  1  0.50000000  0.40665575  0.44384637  1
  C  C47  1  0.50000000  0.40890715  0.94515068  1
  C  C48  1  0.50000000  0.43507356  0.14091502  1
  C  C49  1  0.50000000  0.43950100  0.63908172  1
  C  C50  1  0.50000000  0.43499593  0.30414067  1
  C  C51  1  0.50000000  0.43944490  0.80529987  1
  C  C52  1  0.50000000  0.43795643  0.47073313  1
  C  C53  1  0.50000000  0.43948208  0.97309356  1
  C  C54  1  0.50000000  0.37639426  0.02750807  1
  C  C55  1  0.50000000  0.37753047  0.52729755  1
  C  C56  1  0.50000000  0.37398296  0.19410111  1
  C  C57  1  0.50000000  0.37837547  0.69406095  1
  C  C58  1  0.50000000  0.37445922  0.36069243  1
  C  C59  1  0.50000000  0.37840975  0.86111571  1
  C  C60  1  0.50000000  0.40673297  0.05595764  1
  C  C61  1  0.50000000  0.40886973  0.55461324  1
  C  C62  1  0.50000000  0.40441060  0.22243687  1
  C  C63  1  0.50000000  0.40884650  0.72207600  1
  C  C64  1  0.50000000  0.40538565  0.38812367  1
  C  C65  1  0.50000000  0.40885986  0.88899247  1
  C  C66  1  0.50000000  0.46529724  0.11432402  1
  C  C67  1  0.50000000  0.47021320  0.61211019  1
  C  C68  1  0.50000000  0.46525561  0.27625637  1
  C  C69  1  0.50000000  0.47008054  0.77739675  1
  C  C70  1  0.50000000  0.46627816  0.43788488  1
  C  C71  1  0.50000000  0.47074136  0.94333161  1
  C  C72  1  0.50000000  0.50094070  0.64048999  1
  C  C73  1  0.50000000  0.50089751  0.80442461  1
  C  C74  1  0.50000000  0.50226535  0.96519456  1
  C  C75  1  0.50000000  0.43806335  0.02910144  1
  C  C76  1  0.50000000  0.43943863  0.52671303  1
  C  C77  1  0.50000000  0.43504156  0.19575808  1
  C  C78  1  0.50000000  0.43945169  0.69445378  1
  C  C79  1  0.50000000  0.43509352  0.35895678  1
  C  C80  1  0.50000000  0.43953558  0.86067022  1
  C  C81  1  0.50000000  0.46637356  0.06206542  1
  C  C82  1  0.50000000  0.47071007  0.55641320  1
  C  C83  1  0.50000000  0.46530462  0.22374879  1
  C  C84  1  0.50000000  0.47009382  0.72234179  1
  C  C85  1  0.50000000  0.46530173  0.38564007  1
  C  C86  1  0.50000000  0.47027608  0.88763379  1
  C  C87  1  0.50000000  0.53219144  0.61517341  1
  C  C88  1  0.50000000  0.53179980  0.77728822  1
  C  C89  1  0.50000000  0.53264811  0.93907551  1
  C  C90  1  0.50000000  0.56298911  0.64155652  1
  C  C91  1  0.50000000  0.56285616  0.80383637  1
  C  C92  1  0.50000000  0.56251481  0.96681663  1
  C  C93  1  0.50000000  0.50225074  0.53458000  1
  C  C94  1  0.50000000  0.50091309  0.69539996  1
  C  C95  1  0.50000000  0.50096576  0.85932049  1
  C  C96  1  0.50000000  0.53260673  0.56078968  1
  C  C97  1  0.50000000  0.53180206  0.72255332  1
  C  C98  1  0.50000000  0.53220971  0.88466149  1
  C  C99  1  0.50000000  0.59354444  0.61380389  1
  C  C100  1  0.50000000  0.59388234  0.77727024  1
  C  C101  1  0.50000000  0.59339709  0.94149757  1
  C  C102  1  0.50000000  0.62433493  0.64030657  1
  C  C103  1  0.50000000  0.62447638  0.80452696  1
  C  C104  1  0.50000000  0.62369713  0.96832366  1
  C  C105  1  0.50000000  0.56247143  0.53312074  1
  C  C106  1  0.50000000  0.56284718  0.69598914  1
  C  C107  1  0.50000000  0.56303188  0.85827626  1
  C  C108  1  0.50000000  0.59335303  0.55836799  1
  C  C109  1  0.50000000  0.59386468  0.72252818  1
  C  C110  1  0.50000000  0.59358305  0.88604194  1
  C  C111  1  0.50000000  0.65493363  0.61238909  1
  C  C112  1  0.50000000  0.65548797  0.77742095  1
  C  C113  1  0.50000000  0.65445180  0.94269179  1
  C  C114  1  0.50000000  0.68609894  0.63862853  1
  C  C115  1  0.50000000  0.68622160  0.80500825  1
  C  C116  1  0.50000000  0.68491131  0.97034402  1
  C  C117  1  0.50000000  0.62361635  0.53144599  1
  C  C118  1  0.50000000  0.62445482  0.69525644  1
  C  C119  1  0.50000000  0.62437613  0.85949200  1
  C  C120  1  0.50000000  0.65435261  0.55709480  1
  C  C121  1  0.50000000  0.65547260  0.72231086  1
  C  C122  1  0.50000000  0.65500476  0.88737621  1
  C  C123  1  0.50000000  0.71552301  0.60939690  1
  C  C124  1  0.50000000  0.71592671  0.77646409  1
  C  C125  1  0.50000000  0.71495542  0.94425653  1
  C  C126  1  0.50000000  0.68479295  0.52943533  1
  C  C127  1  0.50000000  0.68618689  0.69468255  1
  C  C128  1  0.50000000  0.68615306  0.86106145  1
  C  C129  1  0.50000000  0.71486462  0.55540863  1
  C  C130  1  0.50000000  0.71590074  0.72321606  1
  C  C131  1  0.50000000  0.71558547  0.89028045  1
  H  H132  1  0.50000000  0.25922823  0.12635921  1
  H  H133  1  0.50000000  0.26279755  0.63083617  1
  H  H134  1  0.50000000  0.25873716  0.29618368  1
  H  H135  1  0.50000000  0.26304399  0.79585115  1
  H  H136  1  0.50000000  0.26090978  0.46537043  1
  H  H137  1  0.50000000  0.26206490  0.96093885  1
  H  H138  1  0.50000000  0.26100730  0.03424479  1
  H  H139  1  0.50000000  0.26206560  0.53853601  1
  H  H140  1  0.50000000  0.25868341  0.20386577  1
  H  H141  1  0.50000000  0.26313974  0.70355691  1
  H  H142  1  0.50000000  0.25935890  0.37285919  1
  H  H143  1  0.50000000  0.26280012  0.86891531  1
  H  H144  1  0.50000000  0.73962976  0.62882091  1
  H  H145  1  0.50000000  0.73992327  0.79623250  1
  H  H146  1  0.50000000  0.73847862  0.96556202  1
  H  H147  1  0.50000000  0.73824583  0.53367103  1
  H  H148  1  0.50000000  0.73988998  0.70345690  1
  H  H149  1  0.50000000  0.73974598  0.87098909  1
  H  H150  1  0.50000000  0.68387923  0.48733959  1
  H  H151  1  0.50000000  0.62335078  0.48935462  1
  H  H152  1  0.50000000  0.56188222  0.00898204  1
  H  H153  1  0.50000000  0.62346697  0.01039874  1
  H  H154  1  0.50000000  0.56184651  0.49100906  1
  H  H155  1  0.50000000  0.68395854  0.01244671  1
  H  H156  1  0.50000000  0.48904643  0.13464794  1
  H  H157  1  0.50000000  0.48914059  0.29616602  1
  H  H158  1  0.50000000  0.49139269  0.45106577  1
  H  H159  1  0.50000000  0.50666045  0.00550224  1
  H  H160  1  0.50000000  0.49153655  0.04906530  1
  H  H161  1  0.50000000  0.48929042  0.20413094  1
  H  H162  1  0.50000000  0.48919259  0.36570554  1
  H  H163  1  0.50000000  0.50668980  0.49427726  1
