# generated using pymatgen
data_H17C72
_symmetry_space_group_name_H-M   'P 1'
_cell_length_a   10.00000000
_cell_length_b   41.10890000
_cell_length_c   26.00519888
_cell_angle_alpha   90.00000000
_cell_angle_beta   90.00000000
_cell_angle_gamma   90.00000000
_symmetry_Int_Tables_number   1
_chemical_formula_structural   H17C72
_chemical_formula_sum   'H34 C144'
_cell_volume   10690.45120390
_cell_formula_units_Z   2
loop_
 _symmetry_equiv_pos_site_id
 _symmetry_equiv_pos_as_xyz
  1  'x, y, z'
loop_
 _atom_site_type_symbol
 _atom_site_label
 _atom_site_symmetry_multiplicity
 _atom_site_fract_x
 _atom_site_fract_y
 _atom_site_fract_z
 _atom_site_occupancy
  C  C0  1  0.50000000  0.28638600  0.30593070  1
  C  C1  1  0.50000000  0.29102602  0.63916753  1
  C  C2  1  0.50000000  0.28987307  0.97092451  1
  C  C3  1  0.50000000  0.34624000  0.30587943  1
  C  C4  1  0.50000000  0.35119521  0.63868839  1
  C  C5  1  0.50000000  0.35021173  0.97258599  1
  C  C6  1  0.50000000  0.40590730  0.30415446  1
  C  C7  1  0.50000000  0.41094217  0.63903091  1
  C  C8  1  0.50000000  0.41076603  0.97351510  1
  C  C9  1  0.50000000  0.47104776  0.64036961  1
  C  C10  1  0.50000000  0.47236072  0.96572561  1
  C  C11  1  0.50000000  0.53178752  0.64147539  1
  C  C12  1  0.50000000  0.53141838  0.96708453  1
  C  C13  1  0.50000000  0.59175567  0.64050978  1
  C  C14  1  0.50000000  0.59134108  0.96849805  1
  C  C15  1  0.50000000  0.65170507  0.63988690  1
  C  C16  1  0.50000000  0.65129725  0.96922504  1
  C  C17  1  0.50000000  0.71208237  0.63877694  1
  C  C18  1  0.50000000  0.71129756  0.97032945  1
  C  C19  1  0.50000000  0.28882311  0.02670963  1
  C  C20  1  0.50000000  0.28691597  0.36206192  1
  C  C21  1  0.50000000  0.29122784  0.69491595  1
  C  C22  1  0.50000000  0.34890415  0.02762758  1
  C  C23  1  0.50000000  0.34677542  0.36088933  1
  C  C24  1  0.50000000  0.35125291  0.69418064  1
  C  C25  1  0.50000000  0.40915551  0.02948407  1
  C  C26  1  0.50000000  0.40603426  0.35895081  1
  C  C27  1  0.50000000  0.41095723  0.69447278  1
  C  C28  1  0.50000000  0.47103387  0.69541844  1
  C  C29  1  0.50000000  0.53161783  0.69605326  1
  C  C30  1  0.50000000  0.59180717  0.69534763  1
  C  C31  1  0.50000000  0.65181217  0.69504415  1
  C  C32  1  0.50000000  0.71208823  0.69484855  1
  C  C33  1  0.50000000  0.25913868  0.05475158  1
  C  C34  1  0.50000000  0.25813582  0.39211974  1
  C  C35  1  0.50000000  0.26200887  0.72340728  1
  C  C36  1  0.50000000  0.31830285  0.05503942  1
  C  C37  1  0.50000000  0.31710843  0.38936702  1
  C  C38  1  0.50000000  0.32124002  0.72227715  1
  C  C39  1  0.50000000  0.37848457  0.05615545  1
  C  C40  1  0.50000000  0.37704608  0.38822599  1
  C  C41  1  0.50000000  0.38106900  0.72222358  1
  C  C42  1  0.50000000  0.43676139  0.06247488  1
  C  C43  1  0.50000000  0.43561781  0.38545387  1
  C  C44  1  0.50000000  0.44095898  0.72246453  1
  C  C45  1  0.50000000  0.50123734  0.72266059  1
  C  C46  1  0.50000000  0.56177314  0.72268386  1
  C  C47  1  0.50000000  0.62196466  0.72242477  1
  C  C48  1  0.50000000  0.68206270  0.72236198  1
  C  C49  1  0.50000000  0.74119487  0.72328348  1
  C  C50  1  0.50000000  0.25815484  0.10784864  1
  C  C51  1  0.50000000  0.25909998  0.44520620  1
  C  C52  1  0.50000000  0.26199201  0.77647800  1
  C  C53  1  0.50000000  0.31713460  0.11064250  1
  C  C54  1  0.50000000  0.31826007  0.44496485  1
  C  C55  1  0.50000000  0.32121995  0.77773809  1
  C  C56  1  0.50000000  0.37707739  0.11185310  1
  C  C57  1  0.50000000  0.37843007  0.44391365  1
  C  C58  1  0.50000000  0.38104064  0.77792806  1
  C  C59  1  0.50000000  0.43563875  0.11471483  1
  C  C60  1  0.50000000  0.43669178  0.43769490  1
  C  C61  1  0.50000000  0.44095254  0.77757091  1
  C  C62  1  0.50000000  0.50123475  0.77739452  1
  C  C63  1  0.50000000  0.56177322  0.77738200  1
  C  C64  1  0.50000000  0.62196851  0.77754400  1
  C  C65  1  0.50000000  0.68206021  0.77753581  1
  C  C66  1  0.50000000  0.74118770  0.77656231  1
  C  C67  1  0.50000000  0.28693363  0.13792837  1
  C  C68  1  0.50000000  0.28877587  0.47325991  1
  C  C69  1  0.50000000  0.29119038  0.80497147  1
  C  C70  1  0.50000000  0.34679556  0.13915869  1
  C  C71  1  0.50000000  0.34885418  0.47240729  1
  C  C72  1  0.50000000  0.35122224  0.80589373  1
  C  C73  1  0.50000000  0.40604838  0.14118251  1
  C  C74  1  0.50000000  0.40908398  0.47061431  1
  C  C75  1  0.50000000  0.41096306  0.80553983  1
  C  C76  1  0.50000000  0.47102637  0.80461458  1
  C  C77  1  0.50000000  0.53161513  0.80401187  1
  C  C78  1  0.50000000  0.59182070  0.80467092  1
  C  C79  1  0.50000000  0.65182156  0.80489058  1
  C  C80  1  0.50000000  0.71208638  0.80501251  1
  C  C81  1  0.50000000  0.28639671  0.19407002  1
  C  C82  1  0.50000000  0.28983295  0.52903094  1
  C  C83  1  0.50000000  0.29106016  0.86074644  1
  C  C84  1  0.50000000  0.34625302  0.19418001  1
  C  C85  1  0.50000000  0.35019378  0.52743997  1
  C  C86  1  0.50000000  0.35121737  0.86131093  1
  C  C87  1  0.50000000  0.40591970  0.19598148  1
  C  C88  1  0.50000000  0.41074781  0.52656243  1
  C  C89  1  0.50000000  0.41096873  0.86097283  1
  C  C90  1  0.50000000  0.47235931  0.53433318  1
  C  C91  1  0.50000000  0.47104883  0.85968060  1
  C  C92  1  0.50000000  0.53138283  0.53300415  1
  C  C93  1  0.50000000  0.53178935  0.85859160  1
  C  C94  1  0.50000000  0.59129740  0.53152365  1
  C  C95  1  0.50000000  0.59177512  0.85951132  1
  C  C96  1  0.50000000  0.65123431  0.53072219  1
  C  C97  1  0.50000000  0.65172776  0.86004311  1
  C  C98  1  0.50000000  0.71123309  0.52948965  1
  C  C99  1  0.50000000  0.71209372  0.86107096  1
  C  C100  1  0.50000000  0.25715486  0.22336625  1
  C  C101  1  0.50000000  0.26086785  0.55839511  1
  C  C102  1  0.50000000  0.26151204  0.88860704  1
  C  C103  1  0.50000000  0.31616832  0.22212683  1
  C  C104  1  0.50000000  0.32022585  0.55587439  1
  C  C105  1  0.50000000  0.32075966  0.88869611  1
  C  C106  1  0.50000000  0.37596397  0.22257456  1
  C  C107  1  0.50000000  0.38092669  0.55460506  1
  C  C108  1  0.50000000  0.38096852  0.88926754  1
  C  C109  1  0.50000000  0.43552166  0.22383270  1
  C  C110  1  0.50000000  0.44141981  0.55610493  1
  C  C111  1  0.50000000  0.44102519  0.88812006  1
  C  C112  1  0.50000000  0.50205321  0.56063586  1
  C  C113  1  0.50000000  0.50160493  0.88501769  1
  C  C114  1  0.50000000  0.56157043  0.55831002  1
  C  C115  1  0.50000000  0.56161898  0.88622613  1
  C  C116  1  0.50000000  0.62143569  0.55731481  1
  C  C117  1  0.50000000  0.62175219  0.88702820  1
  C  C118  1  0.50000000  0.68127376  0.55669836  1
  C  C119  1  0.50000000  0.68177377  0.88775561  1
  C  C120  1  0.50000000  0.74051710  0.55593439  1
  C  C121  1  0.50000000  0.74102813  0.88990800  1
  C  C122  1  0.50000000  0.25714604  0.27662910  1
  C  C123  1  0.50000000  0.26146694  0.61131372  1
  C  C124  1  0.50000000  0.26091221  0.94153277  1
  C  C125  1  0.50000000  0.31616412  0.27789944  1
  C  C126  1  0.50000000  0.32071233  0.61128120  1
  C  C127  1  0.50000000  0.32025851  0.94409556  1
  C  C128  1  0.50000000  0.37596031  0.27752385  1
  C  C129  1  0.50000000  0.38095757  0.61076423  1
  C  C130  1  0.50000000  0.38094073  0.94544854  1
  C  C131  1  0.50000000  0.43551422  0.27634317  1
  C  C132  1  0.50000000  0.44102851  0.61191635  1
  C  C133  1  0.50000000  0.44142921  0.94392992  1
  C  C134  1  0.50000000  0.50159871  0.61505351  1
  C  C135  1  0.50000000  0.50207212  0.93945424  1
  C  C136  1  0.50000000  0.56160340  0.61382003  1
  C  C137  1  0.50000000  0.56159928  0.94174179  1
  C  C138  1  0.50000000  0.62171869  0.61295295  1
  C  C139  1  0.50000000  0.62147718  0.94267796  1
  C  C140  1  0.50000000  0.68174573  0.61212641  1
  C  C141  1  0.50000000  0.68131840  0.94318021  1
  C  C142  1  0.50000000  0.74100325  0.60988073  1
  C  C143  1  0.50000000  0.74056677  0.94385258  1
  H  H144  1  0.50000000  0.23596442  0.03418910  1
  H  H145  1  0.50000000  0.23428939  0.37344126  1
  H  H146  1  0.50000000  0.23863472  0.70346561  1
  H  H147  1  0.50000000  0.76455030  0.70318454  1
  H  H148  1  0.50000000  0.23431351  0.12655691  1
  H  H149  1  0.50000000  0.23589842  0.46567536  1
  H  H150  1  0.50000000  0.23858288  0.79631754  1
  H  H151  1  0.50000000  0.76454584  0.79663063  1
  H  H152  1  0.50000000  0.23365291  0.20358310  1
  H  H153  1  0.50000000  0.23716596  0.53932914  1
  H  H154  1  0.50000000  0.23830517  0.86817621  1
  H  H155  1  0.50000000  0.76362537  0.53492238  1
  H  H156  1  0.50000000  0.76456610  0.87035519  1
  H  H157  1  0.50000000  0.23364046  0.29641308  1
  H  H158  1  0.50000000  0.23823277  0.63166501  1
  H  H159  1  0.50000000  0.23720984  0.96058927  1
  H  H160  1  0.50000000  0.76458460  0.62932024  1
  H  H161  1  0.50000000  0.76364571  0.96493867  1
  H  H162  1  0.50000000  0.47667009  0.00611852  1
  H  H163  1  0.50000000  0.53067654  0.00926764  1
  H  H164  1  0.50000000  0.59099521  0.01064450  1
  H  H165  1  0.50000000  0.65129453  0.01138854  1
  H  H166  1  0.50000000  0.71082915  0.01246602  1
  H  H167  1  0.50000000  0.46132176  0.04934805  1
  H  H168  1  0.50000000  0.45879967  0.36506070  1
  H  H169  1  0.50000000  0.45880730  0.13515784  1
  H  H170  1  0.50000000  0.46117854  0.45108411  1
  H  H171  1  0.50000000  0.47679830  0.49397235  1
  H  H172  1  0.50000000  0.53064580  0.49082668  1
  H  H173  1  0.50000000  0.59096145  0.48938130  1
  H  H174  1  0.50000000  0.65117591  0.48857104  1
  H  H175  1  0.50000000  0.71070000  0.48735602  1
  H  H176  1  0.50000000  0.45887358  0.20392181  1
  H  H177  1  0.50000000  0.45884466  0.29631743  1
