# generated using pymatgen
data_H2C9
_symmetry_space_group_name_H-M   'P 1'
_cell_length_a   10.00000000
_cell_length_b   41.10890000
_cell_length_c   25.79433768
_cell_angle_alpha   90.00000000
_cell_angle_beta   90.00000000
_cell_angle_gamma   90.00000000
_symmetry_Int_Tables_number   1
_chemical_formula_structural   H2C9
_chemical_formula_sum   'H32 C144'
_cell_volume   10603.76848407
_cell_formula_units_Z   16
loop_
 _symmetry_equiv_pos_site_id
 _symmetry_equiv_pos_as_xyz
  1  'x, y, z'
loop_
 _atom_site_type_symbol
 _atom_site_label
 _atom_site_symmetry_multiplicity
 _atom_site_fract_x
 _atom_site_fract_y
 _atom_site_fract_z
 _atom_site_occupancy
  C  C0  1  0.50000000  0.28892389  0.63824631  1
  C  C1  1  0.50000000  0.28994397  0.97181843  1
  C  C2  1  0.50000000  0.34946909  0.63914485  1
  C  C3  1  0.50000000  0.34972996  0.97015669  1
  C  C4  1  0.50000000  0.41051692  0.30683421  1
  C  C5  1  0.50000000  0.40958667  0.63912828  1
  C  C6  1  0.50000000  0.41012866  0.97235947  1
  C  C7  1  0.50000000  0.46986143  0.30558110  1
  C  C8  1  0.50000000  0.46979381  0.63892518  1
  C  C9  1  0.50000000  0.46994582  0.97193855  1
  C  C10  1  0.50000000  0.53013859  0.30558110  1
  C  C11  1  0.50000000  0.53020621  0.63892518  1
  C  C12  1  0.50000000  0.53005420  0.97193855  1
  C  C13  1  0.50000000  0.58948310  0.30683421  1
  C  C14  1  0.50000000  0.59041335  0.63912828  1
  C  C15  1  0.50000000  0.58987136  0.97235947  1
  C  C16  1  0.50000000  0.65053093  0.63914485  1
  C  C17  1  0.50000000  0.65027006  0.97015669  1
  C  C18  1  0.50000000  0.71107613  0.63824631  1
  C  C19  1  0.50000000  0.71005605  0.97181843  1
  C  C20  1  0.50000000  0.28903351  0.69465659  1
  C  C21  1  0.50000000  0.34948498  0.69469694  1
  C  C22  1  0.50000000  0.41100278  0.02624903  1
  C  C23  1  0.50000000  0.41053046  0.36017282  1
  C  C24  1  0.50000000  0.40958196  0.69437531  1
  C  C25  1  0.50000000  0.47004416  0.02744340  1
  C  C26  1  0.50000000  0.46986263  0.36128191  1
  C  C27  1  0.50000000  0.46979800  0.69458479  1
  C  C28  1  0.50000000  0.52995586  0.02744340  1
  C  C29  1  0.50000000  0.53013739  0.36128191  1
  C  C30  1  0.50000000  0.53020202  0.69458479  1
  C  C31  1  0.50000000  0.58899724  0.02624903  1
  C  C32  1  0.50000000  0.58946956  0.36017282  1
  C  C33  1  0.50000000  0.59041806  0.69437531  1
  C  C34  1  0.50000000  0.65051504  0.69469694  1
  C  C35  1  0.50000000  0.71096651  0.69465659  1
  C  C36  1  0.50000000  0.25987376  0.72323129  1
  C  C37  1  0.50000000  0.31911949  0.72221320  1
  C  C38  1  0.50000000  0.37939705  0.72212270  1
  C  C39  1  0.50000000  0.44002685  0.05490237  1
  C  C40  1  0.50000000  0.43990435  0.38896059  1
  C  C41  1  0.50000000  0.43979283  0.72217950  1
  C  C42  1  0.50000000  0.50000001  0.05553071  1
  C  C43  1  0.50000000  0.50000001  0.38921414  1
  C  C44  1  0.50000000  0.50000001  0.72231614  1
  C  C45  1  0.50000000  0.55997318  0.05490237  1
  C  C46  1  0.50000000  0.56009567  0.38896059  1
  C  C47  1  0.50000000  0.56020719  0.72217950  1
  C  C48  1  0.50000000  0.62060297  0.72212270  1
  C  C49  1  0.50000000  0.68088053  0.72221321  1
  C  C50  1  0.50000000  0.74012626  0.72323129  1
  C  C51  1  0.50000000  0.25988453  0.77681798  1
  C  C52  1  0.50000000  0.31912594  0.77777356  1
  C  C53  1  0.50000000  0.37939155  0.77784830  1
  C  C54  1  0.50000000  0.43989375  0.11101975  1
  C  C55  1  0.50000000  0.44003375  0.44507619  1
  C  C56  1  0.50000000  0.43979156  0.77778910  1
  C  C57  1  0.50000000  0.50000001  0.11076450  1
  C  C58  1  0.50000000  0.50000001  0.44444169  1
  C  C59  1  0.50000000  0.50000001  0.77765116  1
  C  C60  1  0.50000000  0.56010627  0.11101975  1
  C  C61  1  0.50000000  0.55996628  0.44507619  1
  C  C62  1  0.50000000  0.56020846  0.77778910  1
  C  C63  1  0.50000000  0.62060847  0.77784830  1
  C  C64  1  0.50000000  0.68087408  0.77777356  1
  C  C65  1  0.50000000  0.74011549  0.77681798  1
  C  C66  1  0.50000000  0.28904106  0.80535315  1
  C  C67  1  0.50000000  0.34948283  0.80529667  1
  C  C68  1  0.50000000  0.41053867  0.13986380  1
  C  C69  1  0.50000000  0.41099720  0.47370364  1
  C  C70  1  0.50000000  0.40957799  0.80559386  1
  C  C71  1  0.50000000  0.46985802  0.13869540  1
  C  C72  1  0.50000000  0.47004762  0.47253127  1
  C  C73  1  0.50000000  0.46979709  0.80538453  1
  C  C74  1  0.50000000  0.53014201  0.13869540  1
  C  C75  1  0.50000000  0.52995240  0.47253127  1
  C  C76  1  0.50000000  0.53020293  0.80538453  1
  C  C77  1  0.50000000  0.58946135  0.13986380  1
  C  C78  1  0.50000000  0.58900282  0.47370364  1
  C  C79  1  0.50000000  0.59042203  0.80559386  1
  C  C80  1  0.50000000  0.65051719  0.80529667  1
  C  C81  1  0.50000000  0.71095896  0.80535315  1
  C  C82  1  0.50000000  0.28993316  0.52826502  1
  C  C83  1  0.50000000  0.28892205  0.86176359  1
  C  C84  1  0.50000000  0.34972042  0.52982377  1
  C  C85  1  0.50000000  0.34946633  0.86084725  1
  C  C86  1  0.50000000  0.41053461  0.19319446  1
  C  C87  1  0.50000000  0.41011957  0.52759818  1
  C  C88  1  0.50000000  0.40958300  0.86083436  1
  C  C89  1  0.50000000  0.46986042  0.19440272  1
  C  C90  1  0.50000000  0.46994723  0.52803288  1
  C  C91  1  0.50000000  0.46979358  0.86104047  1
  C  C92  1  0.50000000  0.53013960  0.19440272  1
  C  C93  1  0.50000000  0.53005280  0.52803288  1
  C  C94  1  0.50000000  0.53020644  0.86104047  1
  C  C95  1  0.50000000  0.58946542  0.19319446  1
  C  C96  1  0.50000000  0.58988045  0.52759818  1
  C  C97  1  0.50000000  0.59041703  0.86083436  1
  C  C98  1  0.50000000  0.65027960  0.52982377  1
  C  C99  1  0.50000000  0.65053369  0.86084725  1
  C  C100  1  0.50000000  0.71006686  0.52826502  1
  C  C101  1  0.50000000  0.71107797  0.86176359  1
  C  C102  1  0.50000000  0.26051712  0.55460571  1
  C  C103  1  0.50000000  0.26007050  0.89107470  1
  C  C104  1  0.50000000  0.31957363  0.55606443  1
  C  C105  1  0.50000000  0.31930438  0.88847028  1
  C  C106  1  0.50000000  0.37925174  0.55570346  1
  C  C107  1  0.50000000  0.37947118  0.88844283  1
  C  C108  1  0.50000000  0.43990341  0.22201417  1
  C  C109  1  0.50000000  0.44001628  0.55584545  1
  C  C110  1  0.50000000  0.43989883  0.88860253  1
  C  C111  1  0.50000000  0.50000001  0.22234944  1
  C  C112  1  0.50000000  0.50000001  0.55596865  1
  C  C113  1  0.50000000  0.50000001  0.88886350  1
  C  C114  1  0.50000000  0.56009661  0.22201417  1
  C  C115  1  0.50000000  0.55998374  0.55584545  1
  C  C116  1  0.50000000  0.56010119  0.88860253  1
  C  C117  1  0.50000000  0.62074828  0.55570346  1
  C  C118  1  0.50000000  0.62052884  0.88844282  1
  C  C119  1  0.50000000  0.68042639  0.55606444  1
  C  C120  1  0.50000000  0.68069564  0.88847028  1
  C  C121  1  0.50000000  0.73948291  0.55460571  1
  C  C122  1  0.50000000  0.73992952  0.89107470  1
  C  C123  1  0.50000000  0.26004504  0.60895552  1
  C  C124  1  0.50000000  0.26054291  0.94541373  1
  C  C125  1  0.50000000  0.31930466  0.61154342  1
  C  C126  1  0.50000000  0.31957201  0.94396288  1
  C  C127  1  0.50000000  0.37947249  0.61153314  1
  C  C128  1  0.50000000  0.37925723  0.94427120  1
  C  C129  1  0.50000000  0.43989605  0.27801164  1
  C  C130  1  0.50000000  0.43990125  0.61135572  1
  C  C131  1  0.50000000  0.44001926  0.94411336  1
  C  C132  1  0.50000000  0.50000001  0.27762481  1
  C  C133  1  0.50000000  0.50000001  0.61110379  1
  C  C134  1  0.50000000  0.50000001  0.94400484  1
  C  C135  1  0.50000000  0.56010397  0.27801164  1
  C  C136  1  0.50000000  0.56009877  0.61135572  1
  C  C137  1  0.50000000  0.55998076  0.94411336  1
  C  C138  1  0.50000000  0.62052753  0.61153314  1
  C  C139  1  0.50000000  0.62074279  0.94427120  1
  C  C140  1  0.50000000  0.68069536  0.61154342  1
  C  C141  1  0.50000000  0.68042801  0.94396288  1
  C  C142  1  0.50000000  0.73995498  0.60895553  1
  C  C143  1  0.50000000  0.73945711  0.94541373  1
  H  H144  1  0.50000000  0.23649409  0.70306065  1
  H  H145  1  0.50000000  0.76350593  0.70306065  1
  H  H146  1  0.50000000  0.23652589  0.79704827  1
  H  H147  1  0.50000000  0.76347413  0.79704827  1
  H  H148  1  0.50000000  0.23754560  0.53298526  1
  H  H149  1  0.50000000  0.23638901  0.87180730  1
  H  H150  1  0.50000000  0.76245442  0.53298527  1
  H  H151  1  0.50000000  0.76361101  0.87180730  1
  H  H152  1  0.50000000  0.23642941  0.62844845  1
  H  H153  1  0.50000000  0.23752981  0.96688475  1
  H  H154  1  0.50000000  0.76357061  0.62844846  1
  H  H155  1  0.50000000  0.76247021  0.96688475  1
  H  H156  1  0.50000000  0.29066243  0.01432496  1
  H  H157  1  0.50000000  0.34882591  0.01252302  1
  H  H158  1  0.50000000  0.38713476  0.28668970  1
  H  H159  1  0.50000000  0.61286526  0.28668970  1
  H  H160  1  0.50000000  0.65117411  0.01252301  1
  H  H161  1  0.50000000  0.70933759  0.01432496  1
  H  H162  1  0.50000000  0.38807452  0.04731353  1
  H  H163  1  0.50000000  0.38709039  0.38019519  1
  H  H164  1  0.50000000  0.61192551  0.04731353  1
  H  H165  1  0.50000000  0.61290963  0.38019519  1
  H  H166  1  0.50000000  0.38704413  0.12002886  1
  H  H167  1  0.50000000  0.38809913  0.45252209  1
  H  H168  1  0.50000000  0.61295590  0.12002886  1
  H  H169  1  0.50000000  0.61190089  0.45252209  1
  H  H170  1  0.50000000  0.29067669  0.48579546  1
  H  H171  1  0.50000000  0.34881656  0.48744788  1
  H  H172  1  0.50000000  0.38713036  0.21326375  1
  H  H173  1  0.50000000  0.61286966  0.21326375  1
  H  H174  1  0.50000000  0.65118346  0.48744789  1
  H  H175  1  0.50000000  0.70932333  0.48579546  1
