# generated using pymatgen
data_H22C63
_symmetry_space_group_name_H-M   'P 1'
_cell_length_a   20.00000000
_cell_length_b   37.22700000
_cell_length_c   26.25505776
_cell_angle_alpha   90.00000000
_cell_angle_beta   90.00000000
_cell_angle_gamma   90.00000000
_symmetry_Int_Tables_number   1
_chemical_formula_structural   H22C63
_chemical_formula_sum   'H44 C126'
_cell_volume   19547.94070481
_cell_formula_units_Z   2
loop_
 _symmetry_equiv_pos_site_id
 _symmetry_equiv_pos_as_xyz
  1  'x, y, z'
loop_
 _atom_site_type_symbol
 _atom_site_label
 _atom_site_symmetry_multiplicity
 _atom_site_fract_x
 _atom_site_fract_y
 _atom_site_fract_z
 _atom_site_occupancy
  C  C0  1  0.50000000  0.30459398  0.22240232  1
  C  C1  1  0.50000000  0.31674496  0.55589474  1
  C  C2  1  0.50000000  0.31688565  0.88831462  1
  C  C3  1  0.50000000  0.37052759  0.22416120  1
  C  C4  1  0.50000000  0.38325500  0.55645827  1
  C  C5  1  0.50000000  0.38295576  0.88804563  1
  C  C6  1  0.50000000  0.45003081  0.56129941  1
  C  C7  1  0.50000000  0.44964504  0.88470466  1
  C  C8  1  0.50000000  0.51582949  0.56021843  1
  C  C9  1  0.50000000  0.51591224  0.88488072  1
  C  C10  1  0.50000000  0.58178059  0.56059581  1
  C  C11  1  0.50000000  0.58232296  0.88482940  1
  C  C12  1  0.50000000  0.67015663  0.22350456  1
  C  C13  1  0.50000000  0.64860541  0.55642184  1
  C  C14  1  0.50000000  0.64906917  0.88748039  1
  C  C15  1  0.50000000  0.73434935  0.22318391  1
  C  C16  1  0.50000000  0.71372868  0.55822233  1
  C  C17  1  0.50000000  0.71405176  0.88845735  1
  C  C18  1  0.50000000  0.30456588  0.27817803  1
  C  C19  1  0.50000000  0.31687644  0.61185034  1
  C  C20  1  0.50000000  0.31677684  0.94432826  1
  C  C21  1  0.50000000  0.37054886  0.27613209  1
  C  C22  1  0.50000000  0.38293366  0.61209107  1
  C  C23  1  0.50000000  0.38329320  0.94369798  1
  C  C24  1  0.50000000  0.44958249  0.61543057  1
  C  C25  1  0.50000000  0.45011405  0.93886424  1
  C  C26  1  0.50000000  0.51580369  0.61519347  1
  C  C27  1  0.50000000  0.51598583  0.93987749  1
  C  C28  1  0.50000000  0.58216115  0.61509496  1
  C  C29  1  0.50000000  0.58200942  0.93934249  1
  C  C30  1  0.50000000  0.67007815  0.27597926  1
  C  C31  1  0.50000000  0.64886842  0.61217735  1
  C  C32  1  0.50000000  0.64886843  0.94321525  1
  C  C33  1  0.50000000  0.73427174  0.27662210  1
  C  C34  1  0.50000000  0.71380964  0.61107300  1
  C  C35  1  0.50000000  0.71403502  0.94132871  1
  C  C36  1  0.50000000  0.27321638  0.30974021  1
  C  C37  1  0.50000000  0.28479606  0.64050226  1
  C  C38  1  0.50000000  0.28328836  0.97061904  1
  C  C39  1  0.50000000  0.33803112  0.30449963  1
  C  C40  1  0.50000000  0.34982634  0.63964119  1
  C  C41  1  0.50000000  0.34915866  0.97329129  1
  C  C42  1  0.50000000  0.41588932  0.64062650  1
  C  C43  1  0.50000000  0.41738647  0.96557275  1
  C  C44  1  0.50000000  0.48278204  0.64217063  1
  C  C45  1  0.50000000  0.48287159  0.96554395  1
  C  C46  1  0.50000000  0.54903644  0.64202591  1
  C  C47  1  0.50000000  0.54912286  0.96572969  1
  C  C48  1  0.50000000  0.61567665  0.64052914  1
  C  C49  1  0.50000000  0.61471366  0.96595167  1
  C  C50  1  0.50000000  0.70197343  0.30490215  1
  C  C51  1  0.50000000  0.68178289  0.63957703  1
  C  C52  1  0.50000000  0.68279060  0.97145983  1
  C  C53  1  0.50000000  0.28048643  0.02289219  1
  C  C54  1  0.50000000  0.27478985  0.36259216  1
  C  C55  1  0.50000000  0.28467232  0.69337706  1
  C  C56  1  0.50000000  0.34597606  0.02935509  1
  C  C57  1  0.50000000  0.33940674  0.35941405  1
  C  C58  1  0.50000000  0.34970479  0.69476360  1
  C  C59  1  0.50000000  0.41580536  0.69552749  1
  C  C60  1  0.50000000  0.48262490  0.69638644  1
  C  C61  1  0.50000000  0.54918286  0.69616613  1
  C  C62  1  0.50000000  0.61571116  0.69526748  1
  C  C63  1  0.50000000  0.68769754  0.02786620  1
  C  C64  1  0.50000000  0.69893923  0.36102058  1
  C  C65  1  0.50000000  0.68196281  0.69503736  1
  C  C66  1  0.50000000  0.31132870  0.05449735  1
  C  C67  1  0.50000000  0.30802551  0.39010514  1
  C  C68  1  0.50000000  0.31665782  0.72220544  1
  C  C69  1  0.50000000  0.37570267  0.06376565  1
  C  C70  1  0.50000000  0.37279802  0.38479502  1
  C  C71  1  0.50000000  0.38281869  0.72267063  1
  C  C72  1  0.50000000  0.44907609  0.72286683  1
  C  C73  1  0.50000000  0.51586596  0.72297870  1
  C  C74  1  0.50000000  0.58266455  0.72262607  1
  C  C75  1  0.50000000  0.65956290  0.06402473  1
  C  C76  1  0.50000000  0.66470356  0.38348256  1
  C  C77  1  0.50000000  0.64897233  0.72252616  1
  C  C78  1  0.50000000  0.72244871  0.05092710  1
  C  C79  1  0.50000000  0.72769871  0.39603632  1
  C  C80  1  0.50000000  0.71413610  0.72336801  1
  C  C81  1  0.50000000  0.30794918  0.11034495  1
  C  C82  1  0.50000000  0.31136310  0.44589651  1
  C  C83  1  0.50000000  0.31668362  0.77793409  1
  C  C84  1  0.50000000  0.37274727  0.11560544  1
  C  C85  1  0.50000000  0.37571041  0.43663727  1
  C  C86  1  0.50000000  0.38282793  0.77747058  1
  C  C87  1  0.50000000  0.44909182  0.77724964  1
  C  C88  1  0.50000000  0.51588690  0.77709458  1
  C  C89  1  0.50000000  0.58269170  0.77727879  1
  C  C90  1  0.50000000  0.66506739  0.11609946  1
  C  C91  1  0.50000000  0.65924160  0.43559471  1
  C  C92  1  0.50000000  0.64900896  0.77719858  1
  C  C93  1  0.50000000  0.72808789  0.10359776  1
  C  C94  1  0.50000000  0.72214452  0.44868331  1
  C  C95  1  0.50000000  0.71417897  0.77612497  1
  C  C96  1  0.50000000  0.27474592  0.13802137  1
  C  C97  1  0.50000000  0.28048774  0.47740203  1
  C  C98  1  0.50000000  0.28471150  0.80673321  1
  C  C99  1  0.50000000  0.33934779  0.14100669  1
  C  C100  1  0.50000000  0.34598167  0.47100142  1
  C  C101  1  0.50000000  0.34972317  0.80538380  1
  C  C102  1  0.50000000  0.41582877  0.80460117  1
  C  C103  1  0.50000000  0.48265383  0.80371228  1
  C  C104  1  0.50000000  0.54923445  0.80384178  1
  C  C105  1  0.50000000  0.61577738  0.80453347  1
  C  C106  1  0.50000000  0.69929536  0.13861174  1
  C  C107  1  0.50000000  0.68740631  0.47168335  1
  C  C108  1  0.50000000  0.68205727  0.80456830  1
  C  C109  1  0.50000000  0.27324725  0.19088489  1
  C  C110  1  0.50000000  0.28324289  0.52964578  1
  C  C111  1  0.50000000  0.28480971  0.85961926  1
  C  C112  1  0.50000000  0.33800374  0.19591546  1
  C  C113  1  0.50000000  0.34913212  0.52697410  1
  C  C114  1  0.50000000  0.34983653  0.86050690  1
  C  C115  1  0.50000000  0.41734084  0.53456053  1
  C  C116  1  0.50000000  0.41593193  0.85951246  1
  C  C117  1  0.50000000  0.48273919  0.53459030  1
  C  C118  1  0.50000000  0.48284798  0.85793564  1
  C  C119  1  0.50000000  0.54889897  0.53427177  1
  C  C120  1  0.50000000  0.54914220  0.85798630  1
  C  C121  1  0.50000000  0.61440549  0.53382505  1
  C  C122  1  0.50000000  0.61581351  0.85926452  1
  C  C123  1  0.50000000  0.70214003  0.19474944  1
  C  C124  1  0.50000000  0.68248847  0.52810174  1
  C  C125  1  0.50000000  0.68197400  0.86003347  1
  H  H126  1  0.50000000  0.76037793  0.20364461  1
  H  H127  1  0.50000000  0.74000011  0.53981843  1
  H  H128  1  0.50000000  0.74004726  0.86914586  1
  H  H129  1  0.50000000  0.76027315  0.29623392  1
  H  H130  1  0.50000000  0.73984916  0.63024490  1
  H  H131  1  0.50000000  0.74028575  0.95982569  1
  H  H132  1  0.50000000  0.24658232  0.29196069  1
  H  H133  1  0.50000000  0.25873213  0.62134395  1
  H  H134  1  0.50000000  0.25827396  0.94888194  1
  H  H135  1  0.50000000  0.25362685  0.03984140  1
  H  H136  1  0.50000000  0.24925846  0.38326591  1
  H  H137  1  0.50000000  0.25860313  0.71253935  1
  H  H138  1  0.50000000  0.74676777  0.02755467  1
  H  H139  1  0.50000000  0.75545454  0.38210677  1
  H  H140  1  0.50000000  0.74004996  0.70383590  1
  H  H141  1  0.50000000  0.75593352  0.11722129  1
  H  H142  1  0.50000000  0.74644772  0.47208045  1
  H  H143  1  0.50000000  0.74012634  0.79556676  1
  H  H144  1  0.50000000  0.24914785  0.11749894  1
  H  H145  1  0.50000000  0.25364694  0.46041904  1
  H  H146  1  0.50000000  0.25876769  0.78725251  1
  H  H147  1  0.50000000  0.24671178  0.20895122  1
  H  H148  1  0.50000000  0.25817572  0.55127298  1
  H  H149  1  0.50000000  0.25874664  0.87876820  1
  H  H150  1  0.50000000  0.39643745  0.20478484  1
  H  H151  1  0.50000000  0.64397098  0.20494538  1
  H  H152  1  0.50000000  0.39653561  0.29531072  1
  H  H153  1  0.50000000  0.64387133  0.29449499  1
  H  H154  1  0.50000000  0.42156822  0.00600402  1
  H  H155  1  0.50000000  0.48250322  0.00732258  1
  H  H156  1  0.50000000  0.54932357  0.00751207  1
  H  H157  1  0.50000000  0.61148077  0.00672296  1
  H  H158  1  0.50000000  0.40317392  0.05126966  1
  H  H159  1  0.50000000  0.39790378  0.36340255  1
  H  H160  1  0.50000000  0.63148035  0.05372875  1
  H  H161  1  0.50000000  0.64049424  0.36010416  1
  H  H162  1  0.50000000  0.39783410  0.13705479  1
  H  H163  1  0.50000000  0.40316107  0.44914172  1
  H  H164  1  0.50000000  0.64084211  0.13945739  1
  H  H165  1  0.50000000  0.63121153  0.44612987  1
  H  H166  1  0.50000000  0.42167635  0.49416101  1
  H  H167  1  0.50000000  0.48234511  0.49283008  1
  H  H168  1  0.50000000  0.54904658  0.49249519  1
  H  H169  1  0.50000000  0.61094087  0.49307901  1
