# generated using pymatgen
data_H5C22
_symmetry_space_group_name_H-M   'P 1'
_cell_length_a   20.00000000
_cell_length_b   40.19450000
_cell_length_c   25.79631527
_cell_angle_alpha   90.00000000
_cell_angle_beta   90.00000000
_cell_angle_gamma   90.00000000
_symmetry_Int_Tables_number   1
_chemical_formula_structural   H5C22
_chemical_formula_sum   'H30 C132'
_cell_volume   20737.39988448
_cell_formula_units_Z   6
loop_
 _symmetry_equiv_pos_site_id
 _symmetry_equiv_pos_as_xyz
  1  'x, y, z'
loop_
 _atom_site_type_symbol
 _atom_site_label
 _atom_site_symmetry_multiplicity
 _atom_site_fract_x
 _atom_site_fract_y
 _atom_site_fract_z
 _atom_site_occupancy
  C  C0  1  0.50000000  0.28519681  0.60945223  1
  C  C1  1  0.50000000  0.28544190  0.77674234  1
  C  C2  1  0.50000000  0.28541842  0.94369971  1
  C  C3  1  0.50000000  0.31613759  0.13983560  1
  C  C4  1  0.50000000  0.31540319  0.63881586  1
  C  C5  1  0.50000000  0.31608096  0.30671299  1
  C  C6  1  0.50000000  0.31557457  0.80575565  1
  C  C7  1  0.50000000  0.31619944  0.47376281  1
  C  C8  1  0.50000000  0.31594481  0.97199541  1
  C  C9  1  0.50000000  0.28534581  0.55634200  1
  C  C10  1  0.50000000  0.28539009  0.72360470  1
  C  C11  1  0.50000000  0.28529677  0.89061290  1
  C  C12  1  0.50000000  0.34611421  0.11098239  1
  C  C13  1  0.50000000  0.34630223  0.61155517  1
  C  C14  1  0.50000000  0.34615419  0.27797914  1
  C  C15  1  0.50000000  0.34631476  0.77790386  1
  C  C16  1  0.50000000  0.34587302  0.44524519  1
  C  C17  1  0.50000000  0.34664705  0.94392798  1
  C  C18  1  0.50000000  0.37677574  0.13852029  1
  C  C19  1  0.50000000  0.37713129  0.63931747  1
  C  C20  1  0.50000000  0.37676121  0.30567974  1
  C  C21  1  0.50000000  0.37719576  0.80552570  1
  C  C22  1  0.50000000  0.37679408  0.47272804  1
  C  C23  1  0.50000000  0.37713953  0.97189190  1
  C  C24  1  0.50000000  0.31631229  0.02628551  1
  C  C25  1  0.50000000  0.31585830  0.52803780  1
  C  C26  1  0.50000000  0.31616151  0.19318897  1
  C  C27  1  0.50000000  0.31547653  0.69441220  1
  C  C28  1  0.50000000  0.31602131  0.36011076  1
  C  C29  1  0.50000000  0.31551577  0.86131434  1
  C  C30  1  0.50000000  0.34599657  0.05477727  1
  C  C31  1  0.50000000  0.34654742  0.55612626  1
  C  C32  1  0.50000000  0.34620242  0.22192759  1
  C  C33  1  0.50000000  0.34627049  0.72217088  1
  C  C34  1  0.50000000  0.34597255  0.38903029  1
  C  C35  1  0.50000000  0.34640622  0.88851820  1
  C  C36  1  0.50000000  0.40767417  0.11062824  1
  C  C37  1  0.50000000  0.40787130  0.61127090  1
  C  C38  1  0.50000000  0.40759315  0.27758577  1
  C  C39  1  0.50000000  0.40807755  0.77768515  1
  C  C40  1  0.50000000  0.40747760  0.44467346  1
  C  C41  1  0.50000000  0.40790845  0.94391109  1
  C  C42  1  0.50000000  0.43848371  0.13851326  1
  C  C43  1  0.50000000  0.43874401  0.63897674  1
  C  C44  1  0.50000000  0.43836749  0.30563027  1
  C  C45  1  0.50000000  0.43878180  0.80531216  1
  C  C46  1  0.50000000  0.43816377  0.47267560  1
  C  C47  1  0.50000000  0.43854663  0.97181211  1
  C  C48  1  0.50000000  0.37692189  0.02729584  1
  C  C49  1  0.50000000  0.37702985  0.52814072  1
  C  C50  1  0.50000000  0.37681896  0.19423587  1
  C  C51  1  0.50000000  0.37714548  0.69451767  1
  C  C52  1  0.50000000  0.37663896  0.36146414  1
  C  C53  1  0.50000000  0.37720252  0.86070472  1
  C  C54  1  0.50000000  0.40762417  0.05534195  1
  C  C55  1  0.50000000  0.40781235  0.55608608  1
  C  C56  1  0.50000000  0.40764213  0.22225992  1
  C  C57  1  0.50000000  0.40805676  0.72230476  1
  C  C58  1  0.50000000  0.40752405  0.38936584  1
  C  C59  1  0.50000000  0.40794717  0.88870176  1
  C  C60  1  0.50000000  0.46917020  0.11084283  1
  C  C61  1  0.50000000  0.46929590  0.61128332  1
  C  C62  1  0.50000000  0.46903319  0.27800509  1
  C  C63  1  0.50000000  0.46953766  0.77759142  1
  C  C64  1  0.50000000  0.46885871  0.44518938  1
  C  C65  1  0.50000000  0.46919998  0.94391389  1
  C  C66  1  0.50000000  0.49919277  0.13984236  1
  C  C67  1  0.50000000  0.50041106  0.63901335  1
  C  C68  1  0.50000000  0.49907959  0.30698935  1
  C  C69  1  0.50000000  0.50036858  0.80536618  1
  C  C70  1  0.50000000  0.49866758  0.47378271  1
  C  C71  1  0.50000000  0.49981509  0.97222651  1
  C  C72  1  0.50000000  0.43832214  0.02733508  1
  C  C73  1  0.50000000  0.43844881  0.52817297  1
  C  C74  1  0.50000000  0.43847327  0.19430343  1
  C  C75  1  0.50000000  0.43875061  0.69460285  1
  C  C76  1  0.50000000  0.43830344  0.36143065  1
  C  C77  1  0.50000000  0.43878673  0.86092409  1
  C  C78  1  0.50000000  0.46905951  0.05479048  1
  C  C79  1  0.50000000  0.46915059  0.55595306  1
  C  C80  1  0.50000000  0.46909369  0.22202552  1
  C  C81  1  0.50000000  0.46953675  0.72223608  1
  C  C82  1  0.50000000  0.46895916  0.38914579  1
  C  C83  1  0.50000000  0.46932714  0.88855604  1
  C  C84  1  0.50000000  0.53104080  0.61154761  1
  C  C85  1  0.50000000  0.53107440  0.77761900  1
  C  C86  1  0.50000000  0.53141631  0.94412072  1
  C  C87  1  0.50000000  0.56182213  0.63925581  1
  C  C88  1  0.50000000  0.56180094  0.80505489  1
  C  C89  1  0.50000000  0.56166317  0.96967167  1
  C  C90  1  0.50000000  0.49881328  0.02605385  1
  C  C91  1  0.50000000  0.49977016  0.52759270  1
  C  C92  1  0.50000000  0.49919286  0.19315502  1
  C  C93  1  0.50000000  0.50037305  0.69441012  1
  C  C94  1  0.50000000  0.49902138  0.36028727  1
  C  C95  1  0.50000000  0.50040241  0.86075092  1
  C  C96  1  0.50000000  0.53141047  0.55561073  1
  C  C97  1  0.50000000  0.53109818  0.72209199  1
  C  C98  1  0.50000000  0.53101703  0.88817947  1
  C  C99  1  0.50000000  0.59266015  0.61205886  1
  C  C100  1  0.50000000  0.59271386  0.77763157  1
  C  C101  1  0.50000000  0.59256355  0.94329599  1
  C  C102  1  0.50000000  0.62337801  0.63918716  1
  C  C103  1  0.50000000  0.62333480  0.80500003  1
  C  C104  1  0.50000000  0.62264749  0.97043040  1
  C  C105  1  0.50000000  0.56165946  0.52999173  1
  C  C106  1  0.50000000  0.56183844  0.69463601  1
  C  C107  1  0.50000000  0.56177084  0.86042612  1
  C  C108  1  0.50000000  0.59262288  0.55632773  1
  C  C109  1  0.50000000  0.59273592  0.72207234  1
  C  C110  1  0.50000000  0.59259570  0.88759394  1
  C  C111  1  0.50000000  0.65402343  0.61110922  1
  C  C112  1  0.50000000  0.65433229  0.77761430  1
  C  C113  1  0.50000000  0.65349145  0.94446032  1
  C  C114  1  0.50000000  0.68512971  0.63790688  1
  C  C115  1  0.50000000  0.68501662  0.80540516  1
  C  C116  1  0.50000000  0.68400991  0.97204134  1
  C  C117  1  0.50000000  0.62277765  0.52928949  1
  C  C118  1  0.50000000  0.62336858  0.69469764  1
  C  C119  1  0.50000000  0.62330943  0.86049875  1
  C  C120  1  0.50000000  0.65363190  0.55532571  1
  C  C121  1  0.50000000  0.65436173  0.72208841  1
  C  C122  1  0.50000000  0.65391141  0.88865102  1
  C  C123  1  0.50000000  0.71466924  0.60882427  1
  C  C124  1  0.50000000  0.71480698  0.77679930  1
  C  C125  1  0.50000000  0.71397861  0.94545359  1
  C  C126  1  0.50000000  0.68421296  0.52788095  1
  C  C127  1  0.50000000  0.68508838  0.69439668  1
  C  C128  1  0.50000000  0.68500597  0.86187495  1
  C  C129  1  0.50000000  0.71420984  0.55443081  1
  C  C130  1  0.50000000  0.71482328  0.72314857  1
  C  C131  1  0.50000000  0.71448866  0.89106926  1
  H  H132  1  0.50000000  0.26124879  0.62953370  1
  H  H133  1  0.50000000  0.26153899  0.79691765  1
  H  H134  1  0.50000000  0.26188405  0.96523961  1
  H  H135  1  0.50000000  0.26190459  0.53455245  1
  H  H136  1  0.50000000  0.26141124  0.70365591  1
  H  H137  1  0.50000000  0.26134401  0.87056178  1
  H  H138  1  0.50000000  0.73874620  0.62850867  1
  H  H139  1  0.50000000  0.73875039  0.79687435  1
  H  H140  1  0.50000000  0.73760989  0.96663677  1
  H  H141  1  0.50000000  0.73776567  0.53302112  1
  H  H142  1  0.50000000  0.73878303  0.70313145  1
  H  H143  1  0.50000000  0.73864237  0.87159575  1
  H  H144  1  0.50000000  0.68367076  0.48540262  1
  H  H145  1  0.50000000  0.29216491  0.11986659  1
  H  H146  1  0.50000000  0.29214875  0.28658677  1
  H  H147  1  0.50000000  0.29213358  0.45400895  1
  H  H148  1  0.50000000  0.29222755  0.04599876  1
  H  H149  1  0.50000000  0.29225492  0.21336000  1
  H  H150  1  0.50000000  0.29205714  0.38013579  1
  H  H151  1  0.50000000  0.68336915  0.01452850  1
  H  H152  1  0.50000000  0.62246327  0.48678380  1
  H  H153  1  0.50000000  0.62218020  0.01292993  1
  H  H154  1  0.50000000  0.56275355  0.01200583  1
  H  H155  1  0.50000000  0.56262547  0.48762307  1
  H  H156  1  0.50000000  0.52320427  0.11995594  1
  H  H157  1  0.50000000  0.52305140  0.28701797  1
  H  H158  1  0.50000000  0.52205401  0.45248624  1
  H  H159  1  0.50000000  0.52231887  0.04702118  1
  H  H160  1  0.50000000  0.52313627  0.21322558  1
  H  H161  1  0.50000000  0.52299240  0.38031606  1
