# generated using pymatgen
data_H5C21
_symmetry_space_group_name_H-M   'P 1'
_cell_length_a   20.00000000
_cell_length_b   37.22700000
_cell_length_c   25.80805336
_cell_angle_alpha   90.00000000
_cell_angle_beta   90.00000000
_cell_angle_gamma   90.00000000
_symmetry_Int_Tables_number   1
_chemical_formula_structural   H5C21
_chemical_formula_sum   'H30 C126'
_cell_volume   19215.12804690
_cell_formula_units_Z   6
loop_
 _symmetry_equiv_pos_site_id
 _symmetry_equiv_pos_as_xyz
  1  'x, y, z'
loop_
 _atom_site_type_symbol
 _atom_site_label
 _atom_site_symmetry_multiplicity
 _atom_site_fract_x
 _atom_site_fract_y
 _atom_site_fract_z
 _atom_site_occupancy
  C  C0  1  0.50000000  0.31773374  0.22207671  1
  C  C1  1  0.50000000  0.31745874  0.55543446  1
  C  C2  1  0.50000000  0.31763524  0.88863794  1
  C  C3  1  0.50000000  0.38401922  0.22240950  1
  C  C4  1  0.50000000  0.38383112  0.55580157  1
  C  C5  1  0.50000000  0.38405948  0.88902568  1
  C  C6  1  0.50000000  0.45037119  0.22201804  1
  C  C7  1  0.50000000  0.45010475  0.55582334  1
  C  C8  1  0.50000000  0.45029249  0.88870450  1
  C  C9  1  0.50000000  0.51732469  0.55570336  1
  C  C10  1  0.50000000  0.51699019  0.88831326  1
  C  C11  1  0.50000000  0.58338285  0.55642838  1
  C  C12  1  0.50000000  0.58353020  0.88783846  1
  C  C13  1  0.50000000  0.64919296  0.55526103  1
  C  C14  1  0.50000000  0.64977393  0.88891132  1
  C  C15  1  0.50000000  0.71447247  0.55400402  1
  C  C16  1  0.50000000  0.71519267  0.89163023  1
  C  C17  1  0.50000000  0.31772841  0.27793947  1
  C  C18  1  0.50000000  0.31764151  0.61132693  1
  C  C19  1  0.50000000  0.31745629  0.94452371  1
  C  C20  1  0.50000000  0.38401815  0.27758027  1
  C  C21  1  0.50000000  0.38406338  0.61094819  1
  C  C22  1  0.50000000  0.38382791  0.94418022  1
  C  C23  1  0.50000000  0.45037617  0.27800639  1
  C  C24  1  0.50000000  0.45029108  0.61126651  1
  C  C25  1  0.50000000  0.45009383  0.94414850  1
  C  C26  1  0.50000000  0.51698641  0.61166673  1
  C  C27  1  0.50000000  0.51731713  0.94426885  1
  C  C28  1  0.50000000  0.58351639  0.61218544  1
  C  C29  1  0.50000000  0.58339559  0.94360653  1
  C  C30  1  0.50000000  0.64976720  0.61111994  1
  C  C31  1  0.50000000  0.64919543  0.94478930  1
  C  C32  1  0.50000000  0.71517285  0.60842344  1
  C  C33  1  0.50000000  0.71447931  0.94605613  1
  C  C34  1  0.50000000  0.28524188  0.30661109  1
  C  C35  1  0.50000000  0.28526045  0.64006782  1
  C  C36  1  0.50000000  0.28499012  0.97327504  1
  C  C37  1  0.50000000  0.35074823  0.30549280  1
  C  C38  1  0.50000000  0.35080142  0.63885227  1
  C  C39  1  0.50000000  0.35051596  0.97211835  1
  C  C40  1  0.50000000  0.41726825  0.30559412  1
  C  C41  1  0.50000000  0.41735541  0.63879813  1
  C  C42  1  0.50000000  0.41700079  0.97205957  1
  C  C43  1  0.50000000  0.48274720  0.30694245  1
  C  C44  1  0.50000000  0.48385706  0.63905120  1
  C  C45  1  0.50000000  0.48316226  0.97234346  1
  C  C46  1  0.50000000  0.55022672  0.63941255  1
  C  C47  1  0.50000000  0.54994784  0.96991115  1
  C  C48  1  0.50000000  0.61671595  0.63930132  1
  C  C49  1  0.50000000  0.61589598  0.97077863  1
  C  C50  1  0.50000000  0.68340189  0.63783942  1
  C  C51  1  0.50000000  0.68210232  0.97252014  1
  C  C52  1  0.50000000  0.28499250  0.02654702  1
  C  C53  1  0.50000000  0.28514473  0.35985329  1
  C  C54  1  0.50000000  0.28532586  0.69336091  1
  C  C55  1  0.50000000  0.35048427  0.02774246  1
  C  C56  1  0.50000000  0.35065499  0.36117095  1
  C  C57  1  0.50000000  0.35087211  0.69441356  1
  C  C58  1  0.50000000  0.41681583  0.02757202  1
  C  C59  1  0.50000000  0.41719187  0.36127061  1
  C  C60  1  0.50000000  0.41738913  0.69455570  1
  C  C61  1  0.50000000  0.48208382  0.02619198  1
  C  C62  1  0.50000000  0.48264480  0.36025472  1
  C  C63  1  0.50000000  0.48386940  0.69444569  1
  C  C64  1  0.50000000  0.55026453  0.69482256  1
  C  C65  1  0.50000000  0.61675251  0.69485246  1
  C  C66  1  0.50000000  0.68339189  0.69438802  1
  C  C67  1  0.50000000  0.31741527  0.05534245  1
  C  C68  1  0.50000000  0.31753900  0.38872990  1
  C  C69  1  0.50000000  0.31782127  0.72195746  1
  C  C70  1  0.50000000  0.38372159  0.05568001  1
  C  C71  1  0.50000000  0.38386021  0.38913245  1
  C  C72  1  0.50000000  0.38427260  0.72231382  1
  C  C73  1  0.50000000  0.45000284  0.05489790  1
  C  C74  1  0.50000000  0.45020696  0.38899503  1
  C  C75  1  0.50000000  0.45054705  0.72224203  1
  C  C76  1  0.50000000  0.51705421  0.72221079  1
  C  C77  1  0.50000000  0.58368023  0.72222566  1
  C  C78  1  0.50000000  0.65022968  0.72222797  1
  C  C79  1  0.50000000  0.71547417  0.72316257  1
  C  C80  1  0.50000000  0.31753471  0.11125055  1
  C  C81  1  0.50000000  0.31741643  0.44464538  1
  C  C82  1  0.50000000  0.31782776  0.77797610  1
  C  C83  1  0.50000000  0.38386154  0.11086089  1
  C  C84  1  0.50000000  0.38372367  0.44430675  1
  C  C85  1  0.50000000  0.38427550  0.77765600  1
  C  C86  1  0.50000000  0.45022170  0.11100521  1
  C  C87  1  0.50000000  0.44999610  0.44509922  1
  C  C88  1  0.50000000  0.45054991  0.77774661  1
  C  C89  1  0.50000000  0.51706184  0.77778685  1
  C  C90  1  0.50000000  0.58368199  0.77777290  1
  C  C91  1  0.50000000  0.65022468  0.77778881  1
  C  C92  1  0.50000000  0.71546828  0.77686797  1
  C  C93  1  0.50000000  0.28515373  0.14015237  1
  C  C94  1  0.50000000  0.28497875  0.47341458  1
  C  C95  1  0.50000000  0.28534825  0.80659107  1
  C  C96  1  0.50000000  0.35065274  0.13881925  1
  C  C97  1  0.50000000  0.35048768  0.47223636  1
  C  C98  1  0.50000000  0.35087304  0.80554617  1
  C  C99  1  0.50000000  0.41719826  0.13872412  1
  C  C100  1  0.50000000  0.41681315  0.47242245  1
  C  C101  1  0.50000000  0.41739182  0.80542656  1
  C  C102  1  0.50000000  0.48264928  0.13978466  1
  C  C103  1  0.50000000  0.48209739  0.47376888  1
  C  C104  1  0.50000000  0.48387563  0.80553851  1
  C  C105  1  0.50000000  0.55027263  0.80517975  1
  C  C106  1  0.50000000  0.61675291  0.80515867  1
  C  C107  1  0.50000000  0.68338488  0.80563488  1
  C  C108  1  0.50000000  0.28526461  0.19337960  1
  C  C109  1  0.50000000  0.28497584  0.52670626  1
  C  C110  1  0.50000000  0.28526546  0.85987304  1
  C  C111  1  0.50000000  0.35074858  0.19449861  1
  C  C112  1  0.50000000  0.35052082  0.52785884  1
  C  C113  1  0.50000000  0.35079772  0.86111087  1
  C  C114  1  0.50000000  0.41727257  0.19440379  1
  C  C115  1  0.50000000  0.41700370  0.52792863  1
  C  C116  1  0.50000000  0.41735412  0.86117896  1
  C  C117  1  0.50000000  0.48274035  0.19309559  1
  C  C118  1  0.50000000  0.48317681  0.52761651  1
  C  C119  1  0.50000000  0.48386305  0.86092767  1
  C  C120  1  0.50000000  0.54995786  0.53006182  1
  C  C121  1  0.50000000  0.55024290  0.86058700  1
  C  C122  1  0.50000000  0.61589250  0.52930354  1
  C  C123  1  0.50000000  0.61672536  0.86071666  1
  C  C124  1  0.50000000  0.68209707  0.52752571  1
  C  C125  1  0.50000000  0.68341489  0.86219676  1
  H  H126  1  0.50000000  0.73979908  0.53238273  1
  H  H127  1  0.50000000  0.74137442  0.87244052  1
  H  H128  1  0.50000000  0.74132267  0.62771105  1
  H  H129  1  0.50000000  0.73976409  0.96780873  1
  H  H130  1  0.50000000  0.25953879  0.28629968  1
  H  H131  1  0.50000000  0.25945487  0.61990873  1
  H  H132  1  0.50000000  0.25911886  0.95329922  1
  H  H133  1  0.50000000  0.25916940  0.04661268  1
  H  H134  1  0.50000000  0.25935830  0.37997124  1
  H  H135  1  0.50000000  0.25957359  0.71369126  1
  H  H136  1  0.50000000  0.74132751  0.70307620  1
  H  H137  1  0.50000000  0.74131660  0.79695629  1
  H  H138  1  0.50000000  0.25930239  0.12022678  1
  H  H139  1  0.50000000  0.25921807  0.45315068  1
  H  H140  1  0.50000000  0.25955569  0.78639714  1
  H  H141  1  0.50000000  0.25950553  0.21351736  1
  H  H142  1  0.50000000  0.25916243  0.54686984  1
  H  H143  1  0.50000000  0.25939801  0.87984915  1
  H  H144  1  0.50000000  0.50860980  0.28693231  1
  H  H145  1  0.50000000  0.55096421  0.01227003  1
  H  H146  1  0.50000000  0.61555423  0.01331689  1
  H  H147  1  0.50000000  0.68147597  0.01501628  1
  H  H148  1  0.50000000  0.50740068  0.04723622  1
  H  H149  1  0.50000000  0.50848677  0.38035787  1
  H  H150  1  0.50000000  0.50852741  0.11979236  1
  H  H151  1  0.50000000  0.50736256  0.45255590  1
  H  H152  1  0.50000000  0.50860382  0.21310259  1
  H  H153  1  0.50000000  0.55097937  0.48768409  1
  H  H154  1  0.50000000  0.61554231  0.48679762  1
  H  H155  1  0.50000000  0.68144144  0.48503996  1
