# generated using pymatgen
data_H2C9
_symmetry_space_group_name_H-M   'P 1'
_cell_length_a   10.00000000
_cell_length_b   41.10890000
_cell_length_c   25.79424234
_cell_angle_alpha   90.00000000
_cell_angle_beta   90.00000000
_cell_angle_gamma   90.00000000
_symmetry_Int_Tables_number   1
_chemical_formula_structural   H2C9
_chemical_formula_sum   'H32 C144'
_cell_volume   10603.72928994
_cell_formula_units_Z   16
loop_
 _symmetry_equiv_pos_site_id
 _symmetry_equiv_pos_as_xyz
  1  'x, y, z'
loop_
 _atom_site_type_symbol
 _atom_site_label
 _atom_site_symmetry_multiplicity
 _atom_site_fract_x
 _atom_site_fract_y
 _atom_site_fract_z
 _atom_site_occupancy
  C  C0  1  0.50000000  0.28898166  0.63777176  1
  C  C1  1  0.50000000  0.29008945  0.97252848  1
  C  C2  1  0.50000000  0.34934791  0.63922505  1
  C  C3  1  0.50000000  0.35008481  0.97085544  1
  C  C4  1  0.50000000  0.40951576  0.63937971  1
  C  C5  1  0.50000000  0.40968342  0.96992383  1
  C  C6  1  0.50000000  0.47049143  0.30683842  1
  C  C7  1  0.50000000  0.46954881  0.63910823  1
  C  C8  1  0.50000000  0.47008238  0.97236542  1
  C  C9  1  0.50000000  0.52982694  0.30561698  1
  C  C10  1  0.50000000  0.52980607  0.63891498  1
  C  C11  1  0.50000000  0.52996800  0.97189656  1
  C  C12  1  0.50000000  0.59008121  0.30563713  1
  C  C13  1  0.50000000  0.59017942  0.63908063  1
  C  C14  1  0.50000000  0.59009838  0.97190207  1
  C  C15  1  0.50000000  0.64939476  0.30679166  1
  C  C16  1  0.50000000  0.65034417  0.63910484  1
  C  C17  1  0.50000000  0.64996024  0.97231956  1
  C  C18  1  0.50000000  0.71085042  0.63837976  1
  C  C19  1  0.50000000  0.71071256  0.97069610  1
  C  C20  1  0.50000000  0.28900484  0.69435515  1
  C  C21  1  0.50000000  0.34933630  0.69478678  1
  C  C22  1  0.50000000  0.40948659  0.69477008  1
  C  C23  1  0.50000000  0.47093016  0.02622548  1
  C  C24  1  0.50000000  0.47048818  0.36016150  1
  C  C25  1  0.50000000  0.46957508  0.69450258  1
  C  C26  1  0.50000000  0.53001294  0.02741880  1
  C  C27  1  0.50000000  0.52983149  0.36135422  1
  C  C28  1  0.50000000  0.52984167  0.69462740  1
  C  C29  1  0.50000000  0.58995022  0.02737119  1
  C  C30  1  0.50000000  0.59009390  0.36133841  1
  C  C31  1  0.50000000  0.59018752  0.69454640  1
  C  C32  1  0.50000000  0.64901182  0.02631940  1
  C  C33  1  0.50000000  0.64939569  0.36013403  1
  C  C34  1  0.50000000  0.65031824  0.69429065  1
  C  C35  1  0.50000000  0.71064938  0.69470293  1
  C  C36  1  0.50000000  0.25994369  0.72315391  1
  C  C37  1  0.50000000  0.31903499  0.72219124  1
  C  C38  1  0.50000000  0.37926904  0.72220201  1
  C  C39  1  0.50000000  0.43952460  0.72221961  1
  C  C40  1  0.50000000  0.49998363  0.05490270  1
  C  C41  1  0.50000000  0.49986352  0.38900330  1
  C  C42  1  0.50000000  0.49977354  0.72226319  1
  C  C43  1  0.50000000  0.55997339  0.05544620  1
  C  C44  1  0.50000000  0.55994692  0.38927810  1
  C  C45  1  0.50000000  0.55992291  0.72232666  1
  C  C46  1  0.50000000  0.61997823  0.05486952  1
  C  C47  1  0.50000000  0.62004443  0.38895972  1
  C  C48  1  0.50000000  0.62022420  0.72211281  1
  C  C49  1  0.50000000  0.68066193  0.72221812  1
  C  C50  1  0.50000000  0.73991213  0.72331368  1
  C  C51  1  0.50000000  0.25994463  0.77689759  1
  C  C52  1  0.50000000  0.31903590  0.77780695  1
  C  C53  1  0.50000000  0.37926672  0.77779137  1
  C  C54  1  0.50000000  0.43952299  0.77777259  1
  C  C55  1  0.50000000  0.49986267  0.11099134  1
  C  C56  1  0.50000000  0.49998176  0.44509025  1
  C  C57  1  0.50000000  0.49977534  0.77773206  1
  C  C58  1  0.50000000  0.55994889  0.11069983  1
  C  C59  1  0.50000000  0.55996654  0.44454029  1
  C  C60  1  0.50000000  0.55992721  0.77767265  1
  C  C61  1  0.50000000  0.62005717  0.11103336  1
  C  C62  1  0.50000000  0.61996787  0.44512938  1
  C  C63  1  0.50000000  0.62023054  0.77787741  1
  C  C64  1  0.50000000  0.68065901  0.77775998  1
  C  C65  1  0.50000000  0.73990217  0.77672900  1
  C  C66  1  0.50000000  0.28901162  0.80566482  1
  C  C67  1  0.50000000  0.34933462  0.80521571  1
  C  C68  1  0.50000000  0.40948376  0.80522916  1
  C  C69  1  0.50000000  0.47050053  0.13987454  1
  C  C70  1  0.50000000  0.47091746  0.47374306  1
  C  C71  1  0.50000000  0.46957579  0.80549237  1
  C  C72  1  0.50000000  0.52983355  0.13863693  1
  C  C73  1  0.50000000  0.53000731  0.47257536  1
  C  C74  1  0.50000000  0.52984371  0.80536761  1
  C  C75  1  0.50000000  0.59009864  0.13863211  1
  C  C76  1  0.50000000  0.58994258  0.47261518  1
  C  C77  1  0.50000000  0.59019311  0.80544741  1
  C  C78  1  0.50000000  0.64939543  0.13988266  1
  C  C79  1  0.50000000  0.64901287  0.47365581  1
  C  C80  1  0.50000000  0.65032298  0.80570124  1
  C  C81  1  0.50000000  0.71063669  0.80529262  1
  C  C82  1  0.50000000  0.29008394  0.52749774  1
  C  C83  1  0.50000000  0.28898197  0.86224243  1
  C  C84  1  0.50000000  0.35008269  0.52922433  1
  C  C85  1  0.50000000  0.34934675  0.86078060  1
  C  C86  1  0.50000000  0.40967907  0.53007155  1
  C  C87  1  0.50000000  0.40950894  0.86062280  1
  C  C88  1  0.50000000  0.47051296  0.19318517  1
  C  C89  1  0.50000000  0.47006985  0.52761448  1
  C  C90  1  0.50000000  0.46955005  0.86088552  1
  C  C91  1  0.50000000  0.52982886  0.19437935  1
  C  C92  1  0.50000000  0.52996223  0.52809547  1
  C  C93  1  0.50000000  0.52981341  0.86107251  1
  C  C94  1  0.50000000  0.59008396  0.19435462  1
  C  C95  1  0.50000000  0.59009657  0.52807877  1
  C  C96  1  0.50000000  0.59018417  0.86090433  1
  C  C97  1  0.50000000  0.64939172  0.19323751  1
  C  C98  1  0.50000000  0.64996349  0.52765645  1
  C  C99  1  0.50000000  0.65035674  0.86088816  1
  C  C100  1  0.50000000  0.71069864  0.52928441  1
  C  C101  1  0.50000000  0.71084216  0.86159362  1
  C  C102  1  0.50000000  0.26074744  0.55398391  1
  C  C103  1  0.50000000  0.26018227  0.89160231  1
  C  C104  1  0.50000000  0.31991252  0.55515745  1
  C  C105  1  0.50000000  0.31943901  0.88899257  1
  C  C106  1  0.50000000  0.37947485  0.55641945  1
  C  C107  1  0.50000000  0.37938759  0.88787453  1
  C  C108  1  0.50000000  0.43920820  0.55575148  1
  C  C109  1  0.50000000  0.43958146  0.88833615  1
  C  C110  1  0.50000000  0.49987927  0.22202308  1
  C  C111  1  0.50000000  0.50000930  0.55589642  1
  C  C112  1  0.50000000  0.49993810  0.88866505  1
  C  C113  1  0.50000000  0.55995026  0.22235245  1
  C  C114  1  0.50000000  0.56001001  0.55602101  1
  C  C115  1  0.50000000  0.56000487  0.88882582  1
  C  C116  1  0.50000000  0.62002636  0.22200497  1
  C  C117  1  0.50000000  0.62004595  0.55586640  1
  C  C118  1  0.50000000  0.62017454  0.88853380  1
  C  C119  1  0.50000000  0.68078848  0.55562147  1
  C  C120  1  0.50000000  0.68064102  0.88901686  1
  C  C121  1  0.50000000  0.74009553  0.55612750  1
  C  C122  1  0.50000000  0.74015469  0.88990381  1
  C  C123  1  0.50000000  0.26018093  0.60842456  1
  C  C124  1  0.50000000  0.26075868  0.94602808  1
  C  C125  1  0.50000000  0.31943519  0.61102858  1
  C  C126  1  0.50000000  0.31992304  0.94487963  1
  C  C127  1  0.50000000  0.37939463  0.61214881  1
  C  C128  1  0.50000000  0.37946939  0.94361622  1
  C  C129  1  0.50000000  0.43958260  0.61165806  1
  C  C130  1  0.50000000  0.43921255  0.94424229  1
  C  C131  1  0.50000000  0.49986884  0.27800341  1
  C  C132  1  0.50000000  0.49993033  0.61131766  1
  C  C133  1  0.50000000  0.50001858  0.94408616  1
  C  C134  1  0.50000000  0.55995337  0.27763001  1
  C  C135  1  0.50000000  0.55999949  0.61116393  1
  C  C136  1  0.50000000  0.56001342  0.94396957  1
  C  C137  1  0.50000000  0.62002798  0.27801761  1
  C  C138  1  0.50000000  0.62016801  0.61144168  1
  C  C139  1  0.50000000  0.62004922  0.94411074  1
  C  C140  1  0.50000000  0.68063804  0.61097757  1
  C  C141  1  0.50000000  0.68079178  0.94436005  1
  C  C142  1  0.50000000  0.74015472  0.61001565  1
  C  C143  1  0.50000000  0.74008879  0.94379382  1
  H  H144  1  0.50000000  0.23651631  0.70309769  1
  H  H145  1  0.50000000  0.76330871  0.70325884  1
  H  H146  1  0.50000000  0.23652736  0.79699030  1
  H  H147  1  0.50000000  0.76327031  0.79687836  1
  H  H148  1  0.50000000  0.23774697  0.53246760  1
  H  H149  1  0.50000000  0.23647382  0.87239851  1
  H  H150  1  0.50000000  0.76312328  0.53464643  1
  H  H151  1  0.50000000  0.76355523  0.86986667  1
  H  H152  1  0.50000000  0.23652329  0.62780478  1
  H  H153  1  0.50000000  0.23775488  0.96754073  1
  H  H154  1  0.50000000  0.76356034  0.63001783  1
  H  H155  1  0.50000000  0.76315680  0.96512045  1
  H  H156  1  0.50000000  0.29068080  0.01501958  1
  H  H157  1  0.50000000  0.35060859  0.01339853  1
  H  H158  1  0.50000000  0.40880699  0.01227870  1
  H  H159  1  0.50000000  0.44715340  0.28662141  1
  H  H160  1  0.50000000  0.67275837  0.28659280  1
  H  H161  1  0.50000000  0.71148380  0.01304495  1
  H  H162  1  0.50000000  0.44794247  0.04720353  1
  H  H163  1  0.50000000  0.44707583  0.38022669  1
  H  H164  1  0.50000000  0.67191677  0.04745597  1
  H  H165  1  0.50000000  0.67286176  0.38014662  1
  H  H166  1  0.50000000  0.44703483  0.11998213  1
  H  H167  1  0.50000000  0.44796249  0.45264134  1
  H  H168  1  0.50000000  0.67288836  0.12005009  1
  H  H169  1  0.50000000  0.67187658  0.45238933  1
  H  H170  1  0.50000000  0.29069679  0.48501586  1
  H  H171  1  0.50000000  0.35061514  0.48671460  1
  H  H172  1  0.50000000  0.40880494  0.48769654  1
  H  H173  1  0.50000000  0.44714786  0.21331768  1
  H  H174  1  0.50000000  0.67277738  0.21333727  1
  H  H175  1  0.50000000  0.71147060  0.48695158  1
