# generated using pymatgen
data_H8C33
_symmetry_space_group_name_H-M   'P 1'
_cell_length_a   20.00000000
_cell_length_b   40.19450000
_cell_length_c   26.18532889
_cell_angle_alpha   90.00000000
_cell_angle_beta   90.00000000
_cell_angle_gamma   90.00000000
_symmetry_Int_Tables_number   1
_chemical_formula_structural   H8C33
_chemical_formula_sum   'H32 C132'
_cell_volume   21050.12403899
_cell_formula_units_Z   4
loop_
 _symmetry_equiv_pos_site_id
 _symmetry_equiv_pos_as_xyz
  1  'x, y, z'
loop_
 _atom_site_type_symbol
 _atom_site_label
 _atom_site_symmetry_multiplicity
 _atom_site_fract_x
 _atom_site_fract_y
 _atom_site_fract_z
 _atom_site_occupancy
  C  C0  1  0.50000000  0.28483478  0.61304173  1
  C  C1  1  0.50000000  0.28513144  0.77629513  1
  C  C2  1  0.50000000  0.28502169  0.94068297  1
  C  C3  1  0.50000000  0.31449717  0.64144780  1
  C  C4  1  0.50000000  0.31505689  0.80371210  1
  C  C5  1  0.50000000  0.31506713  0.96641022  1
  C  C6  1  0.50000000  0.28491660  0.55953178  1
  C  C7  1  0.50000000  0.28513202  0.72384134  1
  C  C8  1  0.50000000  0.28489285  0.88716868  1
  C  C9  1  0.50000000  0.34552476  0.61562090  1
  C  C10  1  0.50000000  0.34615153  0.77728911  1
  C  C11  1  0.50000000  0.34521202  0.93832317  1
  C  C12  1  0.50000000  0.37700541  0.64102015  1
  C  C13  1  0.50000000  0.37725144  0.80431727  1
  C  C14  1  0.50000000  0.37552572  0.96402064  1
  C  C15  1  0.50000000  0.31493908  0.53375195  1
  C  C16  1  0.50000000  0.31505049  0.69640435  1
  C  C17  1  0.50000000  0.31452538  0.85867444  1
  C  C18  1  0.50000000  0.34512516  0.56173779  1
  C  C19  1  0.50000000  0.34615222  0.72278235  1
  C  C20  1  0.50000000  0.34557146  0.88444665  1
  C  C21  1  0.50000000  0.40998495  0.11310457  1
  C  C22  1  0.50000000  0.40763348  0.61289192  1
  C  C23  1  0.50000000  0.40914896  0.27617395  1
  C  C24  1  0.50000000  0.40800498  0.77751397  1
  C  C25  1  0.50000000  0.40972666  0.43890336  1
  C  C26  1  0.50000000  0.40705543  0.94224035  1
  C  C27  1  0.50000000  0.43971246  0.14056922  1
  C  C28  1  0.50000000  0.43868656  0.63947713  1
  C  C29  1  0.50000000  0.43928485  0.30440490  1
  C  C30  1  0.50000000  0.43878009  0.80523004  1
  C  C31  1  0.50000000  0.43826225  0.47141888  1
  C  C32  1  0.50000000  0.43788006  0.97242254  1
  C  C33  1  0.50000000  0.37539955  0.53589136  1
  C  C34  1  0.50000000  0.37724470  0.69568895  1
  C  C35  1  0.50000000  0.37703724  0.85899448  1
  C  C36  1  0.50000000  0.40972086  0.06100372  1
  C  C37  1  0.50000000  0.40697141  0.55756755  1
  C  C38  1  0.50000000  0.40914554  0.22370231  1
  C  C39  1  0.50000000  0.40800931  0.72246358  1
  C  C40  1  0.50000000  0.40998814  0.38679734  1
  C  C41  1  0.50000000  0.40767967  0.88700137  1
  C  C42  1  0.50000000  0.46951685  0.11138401  1
  C  C43  1  0.50000000  0.46909454  0.61089552  1
  C  C44  1  0.50000000  0.46969915  0.27743275  1
  C  C45  1  0.50000000  0.46943704  0.77777776  1
  C  C46  1  0.50000000  0.46922232  0.44416241  1
  C  C47  1  0.50000000  0.46874579  0.94504293  1
  C  C48  1  0.50000000  0.49999307  0.13917125  1
  C  C49  1  0.50000000  0.49999571  0.63838154  1
  C  C50  1  0.50000000  0.49998818  0.30585766  1
  C  C51  1  0.50000000  0.50000526  0.80580966  1
  C  C52  1  0.50000000  0.49999922  0.47215921  1
  C  C53  1  0.50000000  0.50000119  0.97272438  1
  C  C54  1  0.50000000  0.43826593  0.02847780  1
  C  C55  1  0.50000000  0.43784642  0.52745933  1
  C  C56  1  0.50000000  0.43928287  0.19547694  1
  C  C57  1  0.50000000  0.43878197  0.69474670  1
  C  C58  1  0.50000000  0.43971130  0.35931954  1
  C  C59  1  0.50000000  0.43872619  0.86043303  1
  C  C60  1  0.50000000  0.46922235  0.05576032  1
  C  C61  1  0.50000000  0.46871905  0.55486885  1
  C  C62  1  0.50000000  0.46969983  0.22245832  1
  C  C63  1  0.50000000  0.46945258  0.72222591  1
  C  C64  1  0.50000000  0.46951177  0.38852537  1
  C  C65  1  0.50000000  0.46912870  0.88900822  1
  C  C66  1  0.50000000  0.53047117  0.11138419  1
  C  C67  1  0.50000000  0.53089924  0.61089507  1
  C  C68  1  0.50000000  0.53027373  0.27742234  1
  C  C69  1  0.50000000  0.53055059  0.77769233  1
  C  C70  1  0.50000000  0.53076769  0.44415444  1
  C  C71  1  0.50000000  0.53126723  0.94506225  1
  C  C72  1  0.50000000  0.56027129  0.14057371  1
  C  C73  1  0.50000000  0.56129993  0.63949464  1
  C  C74  1  0.50000000  0.56068793  0.30439122  1
  C  C75  1  0.50000000  0.56121002  0.80522426  1
  C  C76  1  0.50000000  0.56173260  0.47140710  1
  C  C77  1  0.50000000  0.56212956  0.97245279  1
  C  C78  1  0.50000000  0.49999515  0.02776811  1
  C  C79  1  0.50000000  0.49999936  0.52721119  1
  C  C80  1  0.50000000  0.49999176  0.19403308  1
  C  C81  1  0.50000000  0.49999511  0.69408534  1
  C  C82  1  0.50000000  0.49998872  0.36073010  1
  C  C83  1  0.50000000  0.50002633  0.86151539  1
  C  C84  1  0.50000000  0.53076549  0.05576535  1
  C  C85  1  0.50000000  0.53128007  0.55486745  1
  C  C86  1  0.50000000  0.53028192  0.22245713  1
  C  C87  1  0.50000000  0.53056431  0.72213024  1
  C  C88  1  0.50000000  0.53046816  0.38852263  1
  C  C89  1  0.50000000  0.53091285  0.88903644  1
  C  C90  1  0.50000000  0.58999586  0.11311731  1
  C  C91  1  0.50000000  0.59236287  0.61287832  1
  C  C92  1  0.50000000  0.59083565  0.27617551  1
  C  C93  1  0.50000000  0.59198697  0.77750913  1
  C  C94  1  0.50000000  0.59027146  0.43888121  1
  C  C95  1  0.50000000  0.59296364  0.94230641  1
  C  C96  1  0.50000000  0.62299089  0.64098824  1
  C  C97  1  0.50000000  0.62275496  0.80428357  1
  C  C98  1  0.50000000  0.62450843  0.96404608  1
  C  C99  1  0.50000000  0.56172804  0.02849670  1
  C  C100  1  0.50000000  0.56215073  0.52745608  1
  C  C101  1  0.50000000  0.56069947  0.19547819  1
  C  C102  1  0.50000000  0.56123608  0.69470156  1
  C  C103  1  0.50000000  0.56026663  0.35930871  1
  C  C104  1  0.50000000  0.56132107  0.86048215  1
  C  C105  1  0.50000000  0.59026876  0.06101793  1
  C  C106  1  0.50000000  0.59301825  0.55754839  1
  C  C107  1  0.50000000  0.59083674  0.22370091  1
  C  C108  1  0.50000000  0.59199978  0.72244465  1
  C  C109  1  0.50000000  0.58999888  0.38677113  1
  C  C110  1  0.50000000  0.59236630  0.88703036  1
  C  C111  1  0.50000000  0.65446868  0.61557421  1
  C  C112  1  0.50000000  0.65385229  0.77724464  1
  C  C113  1  0.50000000  0.65480535  0.93828074  1
  C  C114  1  0.50000000  0.68549568  0.64140528  1
  C  C115  1  0.50000000  0.68495365  0.80365796  1
  C  C116  1  0.50000000  0.68495455  0.96634343  1
  C  C117  1  0.50000000  0.62458693  0.53585332  1
  C  C118  1  0.50000000  0.62275983  0.69566032  1
  C  C119  1  0.50000000  0.62299461  0.85894600  1
  C  C120  1  0.50000000  0.65486577  0.56169298  1
  C  C121  1  0.50000000  0.65385597  0.72273401  1
  C  C122  1  0.50000000  0.65445437  0.88440175  1
  C  C123  1  0.50000000  0.71515574  0.61299010  1
  C  C124  1  0.50000000  0.71487819  0.77623751  1
  C  C125  1  0.50000000  0.71499772  0.94061428  1
  C  C126  1  0.50000000  0.68505251  0.53369894  1
  C  C127  1  0.50000000  0.68495600  0.69635888  1
  C  C128  1  0.50000000  0.68549435  0.85862139  1
  C  C129  1  0.50000000  0.71507846  0.55948232  1
  C  C130  1  0.50000000  0.71487535  0.72378705  1
  C  C131  1  0.50000000  0.71512931  0.88710310  1
  H  H132  1  0.50000000  0.26081547  0.63255267  1
  H  H133  1  0.50000000  0.26131035  0.79629076  1
  H  H134  1  0.50000000  0.26139230  0.96151850  1
  H  H135  1  0.50000000  0.26128520  0.53871144  1
  H  H136  1  0.50000000  0.26130562  0.70386519  1
  H  H137  1  0.50000000  0.26082592  0.86779731  1
  H  H138  1  0.50000000  0.73917927  0.63248342  1
  H  H139  1  0.50000000  0.73869525  0.79623693  1
  H  H140  1  0.50000000  0.73862109  0.96145694  1
  H  H141  1  0.50000000  0.73870545  0.53864609  1
  H  H142  1  0.50000000  0.73869622  0.70380212  1
  H  H143  1  0.50000000  0.73919051  0.86771736  1
  H  H144  1  0.50000000  0.68405988  0.49183171  1
  H  H145  1  0.50000000  0.31593857  0.49188772  1
  H  H146  1  0.50000000  0.68387599  0.00820300  1
  H  H147  1  0.50000000  0.31613648  0.00827540  1
  H  H148  1  0.50000000  0.61407408  0.13245333  1
  H  H149  1  0.50000000  0.61480280  0.29579316  1
  H  H150  1  0.50000000  0.61542776  0.45179102  1
  H  H151  1  0.50000000  0.62850156  0.00411303  1
  H  H152  1  0.50000000  0.61544715  0.04820127  1
  H  H153  1  0.50000000  0.61480086  0.20409783  1
  H  H154  1  0.50000000  0.61407454  0.36739221  1
  H  H155  1  0.50000000  0.62869571  0.49579404  1
  H  H156  1  0.50000000  0.37157404  0.00408574  1
  H  H157  1  0.50000000  0.38590053  0.13245860  1
  H  H158  1  0.50000000  0.38519491  0.29579913  1
  H  H159  1  0.50000000  0.38457353  0.45182988  1
  H  H160  1  0.50000000  0.37130479  0.49581596  1
  H  H161  1  0.50000000  0.38453566  0.04819117  1
  H  H162  1  0.50000000  0.38518371  0.20409999  1
  H  H163  1  0.50000000  0.38590611  0.36744978  1
