# generated using pymatgen
data_HC3
_symmetry_space_group_name_H-M   'P 1'
_cell_length_a   20.00000000
_cell_length_b   37.22700000
_cell_length_c   25.96547507
_cell_angle_alpha   90.00000000
_cell_angle_beta   90.00000000
_cell_angle_gamma   90.00000000
_symmetry_Int_Tables_number   1
_chemical_formula_structural   HC3
_chemical_formula_sum   'H42 C126'
_cell_volume   19332.33480722
_cell_formula_units_Z   42
loop_
 _symmetry_equiv_pos_site_id
 _symmetry_equiv_pos_as_xyz
  1  'x, y, z'
loop_
 _atom_site_type_symbol
 _atom_site_label
 _atom_site_symmetry_multiplicity
 _atom_site_fract_x
 _atom_site_fract_y
 _atom_site_fract_z
 _atom_site_occupancy
  C  C0  1  0.50000000  0.31776763  0.22229507  1
  C  C1  1  0.50000000  0.31715360  0.55588851  1
  C  C2  1  0.50000000  0.31715276  0.88870429  1
  C  C3  1  0.50000000  0.38418439  0.22217615  1
  C  C4  1  0.50000000  0.38350849  0.55645262  1
  C  C5  1  0.50000000  0.38351323  0.88861675  1
  C  C6  1  0.50000000  0.45075412  0.55665734  1
  C  C7  1  0.50000000  0.45014802  0.88778537  1
  C  C8  1  0.50000000  0.51689895  0.55817864  1
  C  C9  1  0.50000000  0.51662103  0.88665908  1
  C  C10  1  0.50000000  0.58283502  0.55810596  1
  C  C11  1  0.50000000  0.58287356  0.88665023  1
  C  C12  1  0.50000000  0.64913721  0.55692516  1
  C  C13  1  0.50000000  0.64944729  0.88732965  1
  C  C14  1  0.50000000  0.71410833  0.22355604  1
  C  C15  1  0.50000000  0.71588816  0.55903398  1
  C  C16  1  0.50000000  0.71541184  0.88853851  1
  C  C17  1  0.50000000  0.31776610  0.27770409  1
  C  C18  1  0.50000000  0.31715219  0.61129552  1
  C  C19  1  0.50000000  0.31715260  0.94411062  1
  C  C20  1  0.50000000  0.38418467  0.27781945  1
  C  C21  1  0.50000000  0.38351730  0.61138170  1
  C  C22  1  0.50000000  0.38350410  0.94354735  1
  C  C23  1  0.50000000  0.45014649  0.61221538  1
  C  C24  1  0.50000000  0.45074344  0.94333245  1
  C  C25  1  0.50000000  0.51662442  0.61333896  1
  C  C26  1  0.50000000  0.51689211  0.94181804  1
  C  C27  1  0.50000000  0.58287760  0.61334372  1
  C  C28  1  0.50000000  0.58283132  0.94188493  1
  C  C29  1  0.50000000  0.64943737  0.61265602  1
  C  C30  1  0.50000000  0.64913725  0.94306561  1
  C  C31  1  0.50000000  0.71414356  0.27640630  1
  C  C32  1  0.50000000  0.71541436  0.61146808  1
  C  C33  1  0.50000000  0.71587982  0.94097397  1
  C  C34  1  0.50000000  0.28530568  0.30683657  1
  C  C35  1  0.50000000  0.28467944  0.64037098  1
  C  C36  1  0.50000000  0.28476399  0.97336945  1
  C  C37  1  0.50000000  0.35093997  0.30566067  1
  C  C38  1  0.50000000  0.35032838  0.63905788  1
  C  C39  1  0.50000000  0.35036883  0.97175219  1
  C  C40  1  0.50000000  0.41650532  0.30727612  1
  C  C41  1  0.50000000  0.41695166  0.63946050  1
  C  C42  1  0.50000000  0.41670591  0.97178201  1
  C  C43  1  0.50000000  0.48323717  0.64008358  1
  C  C44  1  0.50000000  0.48369883  0.96839213  1
  C  C45  1  0.50000000  0.54973833  0.64061301  1
  C  C46  1  0.50000000  0.54986902  0.96822746  1
  C  C47  1  0.50000000  0.61617286  0.64022326  1
  C  C48  1  0.50000000  0.61620667  0.96822594  1
  C  C49  1  0.50000000  0.68297065  0.30791482  1
  C  C50  1  0.50000000  0.68241608  0.64000397  1
  C  C51  1  0.50000000  0.68350131  0.97086072  1
  C  C52  1  0.50000000  0.28480813  0.02631380  1
  C  C53  1  0.50000000  0.28522307  0.35979872  1
  C  C54  1  0.50000000  0.28469035  0.69324312  1
  C  C55  1  0.50000000  0.35034020  0.02728864  1
  C  C56  1  0.50000000  0.35086726  0.36149977  1
  C  C57  1  0.50000000  0.35028995  0.69457216  1
  C  C58  1  0.50000000  0.41576569  0.02537356  1
  C  C59  1  0.50000000  0.41641771  0.36032986  1
  C  C60  1  0.50000000  0.41680363  0.69451238  1
  C  C61  1  0.50000000  0.48311088  0.69513525  1
  C  C62  1  0.50000000  0.54965014  0.69550030  1
  C  C63  1  0.50000000  0.61612161  0.69517011  1
  C  C64  1  0.50000000  0.68474540  0.02428072  1
  C  C65  1  0.50000000  0.68350372  0.36085697  1
  C  C66  1  0.50000000  0.68249747  0.69488172  1
  C  C67  1  0.50000000  0.31728946  0.05534140  1
  C  C68  1  0.50000000  0.31753631  0.38918067  1
  C  C69  1  0.50000000  0.31721429  0.72225307  1
  C  C70  1  0.50000000  0.38376159  0.05469326  1
  C  C71  1  0.50000000  0.38401589  0.38955497  1
  C  C72  1  0.50000000  0.38355399  0.72246898  1
  C  C73  1  0.50000000  0.44992298  0.72240267  1
  C  C74  1  0.50000000  0.51635433  0.72258569  1
  C  C75  1  0.50000000  0.58289245  0.72257599  1
  C  C76  1  0.50000000  0.64930842  0.72249005  1
  C  C77  1  0.50000000  0.71579890  0.05535994  1
  C  C78  1  0.50000000  0.71508215  0.39150401  1
  C  C79  1  0.50000000  0.71504818  0.72363617  1
  C  C80  1  0.50000000  0.31753696  0.11081522  1
  C  C81  1  0.50000000  0.31729156  0.44465451  1
  C  C82  1  0.50000000  0.31721458  0.77774261  1
  C  C83  1  0.50000000  0.38400779  0.11043910  1
  C  C84  1  0.50000000  0.38376630  0.44530498  1
  C  C85  1  0.50000000  0.38355560  0.77753924  1
  C  C86  1  0.50000000  0.44992222  0.77760301  1
  C  C87  1  0.50000000  0.51635520  0.77742187  1
  C  C88  1  0.50000000  0.58289613  0.77742974  1
  C  C89  1  0.50000000  0.64930678  0.77750997  1
  C  C90  1  0.50000000  0.71501859  0.10852819  1
  C  C91  1  0.50000000  0.71582621  0.44467377  1
  C  C92  1  0.50000000  0.71505189  0.77636645  1
  C  C93  1  0.50000000  0.28522681  0.14019553  1
  C  C94  1  0.50000000  0.28481119  0.47368727  1
  C  C95  1  0.50000000  0.28469411  0.80675845  1
  C  C96  1  0.50000000  0.35086432  0.13849880  1
  C  C97  1  0.50000000  0.35034338  0.47270682  1
  C  C98  1  0.50000000  0.35029359  0.80542570  1
  C  C99  1  0.50000000  0.41640947  0.13965573  1
  C  C100  1  0.50000000  0.41576977  0.47462059  1
  C  C101  1  0.50000000  0.41680557  0.80548887  1
  C  C102  1  0.50000000  0.48310805  0.80486621  1
  C  C103  1  0.50000000  0.54965154  0.80450079  1
  C  C104  1  0.50000000  0.61612456  0.80483400  1
  C  C105  1  0.50000000  0.68342521  0.13914122  1
  C  C106  1  0.50000000  0.68476147  0.47572946  1
  C  C107  1  0.50000000  0.68249212  0.80511159  1
  C  C108  1  0.50000000  0.28531028  0.19315769  1
  C  C109  1  0.50000000  0.28476696  0.52663134  1
  C  C110  1  0.50000000  0.28468275  0.85962541  1
  C  C111  1  0.50000000  0.35093960  0.19433924  1
  C  C112  1  0.50000000  0.35037622  0.52825047  1
  C  C113  1  0.50000000  0.35033083  0.86094221  1
  C  C114  1  0.50000000  0.41650028  0.19270879  1
  C  C115  1  0.50000000  0.41671018  0.52822126  1
  C  C116  1  0.50000000  0.41695504  0.86055917  1
  C  C117  1  0.50000000  0.48370265  0.53160996  1
  C  C118  1  0.50000000  0.48323333  0.85991937  1
  C  C119  1  0.50000000  0.54987420  0.53176483  1
  C  C120  1  0.50000000  0.54973382  0.85938312  1
  C  C121  1  0.50000000  0.61620890  0.53176106  1
  C  C122  1  0.50000000  0.61617315  0.85977641  1
  C  C123  1  0.50000000  0.68290794  0.19208834  1
  C  C124  1  0.50000000  0.68350812  0.52914690  1
  C  C125  1  0.50000000  0.68241694  0.85999719  1
  H  H126  1  0.50000000  0.74034679  0.20449380  1
  H  H127  1  0.50000000  0.74186996  0.53933593  1
  H  H128  1  0.50000000  0.74111814  0.86827736  1
  H  H129  1  0.50000000  0.74040350  0.29540788  1
  H  H130  1  0.50000000  0.74111705  0.63174438  1
  H  H131  1  0.50000000  0.74186362  0.96067317  1
  H  H132  1  0.50000000  0.25939141  0.28704749  1
  H  H133  1  0.50000000  0.25877351  0.62057465  1
  H  H134  1  0.50000000  0.25881680  0.95366566  1
  H  H135  1  0.50000000  0.25890014  0.04612531  1
  H  H136  1  0.50000000  0.25924298  0.37939611  1
  H  H137  1  0.50000000  0.25878677  0.71302930  1
  H  H138  1  0.50000000  0.74234357  0.03713882  1
  H  H139  1  0.50000000  0.74105931  0.37169884  1
  H  H140  1  0.50000000  0.74085362  0.70365574  1
  H  H141  1  0.50000000  0.74096770  0.12840297  1
  H  H142  1  0.50000000  0.74236224  0.46292185  1
  H  H143  1  0.50000000  0.74086058  0.79631505  1
  H  H144  1  0.50000000  0.25925306  0.12058541  1
  H  H145  1  0.50000000  0.25890373  0.45387634  1
  H  H146  1  0.50000000  0.25878509  0.78697365  1
  H  H147  1  0.50000000  0.25940240  0.21295977  1
  H  H148  1  0.50000000  0.25882551  0.54635476  1
  H  H149  1  0.50000000  0.25878009  0.87943924  1
  H  H150  1  0.50000000  0.44250742  0.28765689  1
  H  H151  1  0.50000000  0.48510228  0.01045980  1
  H  H152  1  0.50000000  0.54977989  0.01045583  1
  H  H153  1  0.50000000  0.61506956  0.01034565  1
  H  H154  1  0.50000000  0.65662896  0.28902526  1
  H  H155  1  0.50000000  0.44120303  0.04611032  1
  H  H156  1  0.50000000  0.44244222  0.37993058  1
  H  H157  1  0.50000000  0.65914808  0.04487789  1
  H  H158  1  0.50000000  0.65737281  0.38023454  1
  H  H159  1  0.50000000  0.44242742  0.12003882  1
  H  H160  1  0.50000000  0.44121222  0.45390561  1
  H  H161  1  0.50000000  0.65729572  0.11975209  1
  H  H162  1  0.50000000  0.65916863  0.45511785  1
  H  H163  1  0.50000000  0.44250456  0.21231683  1
  H  H164  1  0.50000000  0.48509747  0.48953675  1
  H  H165  1  0.50000000  0.54977971  0.48953476  1
  H  H166  1  0.50000000  0.61507570  0.48964623  1
  H  H167  1  0.50000000  0.65656891  0.21099060  1
