# generated using pymatgen
data_H5C22
_symmetry_space_group_name_H-M   'P 1'
_cell_length_a   20.00000000
_cell_length_b   40.19450000
_cell_length_c   25.79186985
_cell_angle_alpha   90.00000000
_cell_angle_beta   90.00000000
_cell_angle_gamma   90.00000000
_symmetry_Int_Tables_number   1
_chemical_formula_structural   H5C22
_chemical_formula_sum   'H30 C132'
_cell_volume   20733.82625343
_cell_formula_units_Z   6
loop_
 _symmetry_equiv_pos_site_id
 _symmetry_equiv_pos_as_xyz
  1  'x, y, z'
loop_
 _atom_site_type_symbol
 _atom_site_label
 _atom_site_symmetry_multiplicity
 _atom_site_fract_x
 _atom_site_fract_y
 _atom_site_fract_z
 _atom_site_occupancy
  C  C0  1  0.50000000  0.28501483  0.61039352  1
  C  C1  1  0.50000000  0.28540644  0.77685102  1
  C  C2  1  0.50000000  0.28521145  0.94368528  1
  C  C3  1  0.50000000  0.31502027  0.63863915  1
  C  C4  1  0.50000000  0.31535069  0.80531687  1
  C  C5  1  0.50000000  0.31521737  0.97067550  1
  C  C6  1  0.50000000  0.28505426  0.55651161  1
  C  C7  1  0.50000000  0.28537728  0.72345929  1
  C  C8  1  0.50000000  0.28517216  0.88980352  1
  C  C9  1  0.50000000  0.34587551  0.61109760  1
  C  C10  1  0.50000000  0.34597818  0.77783234  1
  C  C11  1  0.50000000  0.34580504  0.94433876  1
  C  C12  1  0.50000000  0.37779572  0.13979977  1
  C  C13  1  0.50000000  0.37686076  0.63917795  1
  C  C14  1  0.50000000  0.37772776  0.30689957  1
  C  C15  1  0.50000000  0.37696890  0.80577074  1
  C  C16  1  0.50000000  0.37818842  0.47381324  1
  C  C17  1  0.50000000  0.37734592  0.97225619  1
  C  C18  1  0.50000000  0.31506651  0.52952304  1
  C  C19  1  0.50000000  0.31528186  0.69487276  1
  C  C20  1  0.50000000  0.31513515  0.86154043  1
  C  C21  1  0.50000000  0.34568159  0.55575143  1
  C  C22  1  0.50000000  0.34593766  0.72230846  1
  C  C23  1  0.50000000  0.34599294  0.88900374  1
  C  C24  1  0.50000000  0.40782503  0.11095070  1
  C  C25  1  0.50000000  0.40773055  0.61153670  1
  C  C26  1  0.50000000  0.40777548  0.27801926  1
  C  C27  1  0.50000000  0.40771983  0.77788454  1
  C  C28  1  0.50000000  0.40789577  0.44527611  1
  C  C29  1  0.50000000  0.40793384  0.94403853  1
  C  C30  1  0.50000000  0.43845246  0.13860738  1
  C  C31  1  0.50000000  0.43840559  0.63916583  1
  C  C32  1  0.50000000  0.43842065  0.30566133  1
  C  C33  1  0.50000000  0.43844062  0.80541025  1
  C  C34  1  0.50000000  0.43859626  0.47276196  1
  C  C35  1  0.50000000  0.43853752  0.97183237  1
  C  C36  1  0.50000000  0.37826338  0.02621634  1
  C  C37  1  0.50000000  0.37722326  0.52779512  1
  C  C38  1  0.50000000  0.37776506  0.19314811  1
  C  C39  1  0.50000000  0.37691915  0.69432212  1
  C  C40  1  0.50000000  0.37776815  0.36026935  1
  C  C41  1  0.50000000  0.37695166  0.86090229  1
  C  C42  1  0.50000000  0.40794369  0.05479015  1
  C  C43  1  0.50000000  0.40783760  0.55599347  1
  C  C44  1  0.50000000  0.40780405  0.22198148  1
  C  C45  1  0.50000000  0.40769843  0.72217428  1
  C  C46  1  0.50000000  0.40779601  0.38910256  1
  C  C47  1  0.50000000  0.40781644  0.88850150  1
  C  C48  1  0.50000000  0.46930354  0.11068294  1
  C  C49  1  0.50000000  0.46927513  0.61129256  1
  C  C50  1  0.50000000  0.46924036  0.27764866  1
  C  C51  1  0.50000000  0.46935555  0.77762338  1
  C  C52  1  0.50000000  0.46922743  0.44464429  1
  C  C53  1  0.50000000  0.46928855  0.94385286  1
  C  C54  1  0.50000000  0.50012099  0.13860138  1
  C  C55  1  0.50000000  0.50017257  0.63904399  1
  C  C56  1  0.50000000  0.50004584  0.30565122  1
  C  C57  1  0.50000000  0.50017192  0.80531371  1
  C  C58  1  0.50000000  0.49985613  0.47272092  1
  C  C59  1  0.50000000  0.50001443  0.97179965  1
  C  C60  1  0.50000000  0.43866414  0.02731408  1
  C  C61  1  0.50000000  0.43847296  0.52824089  1
  C  C62  1  0.50000000  0.43845439  0.19433741  1
  C  C63  1  0.50000000  0.43841582  0.69461999  1
  C  C64  1  0.50000000  0.43841148  0.36141227  1
  C  C65  1  0.50000000  0.43845777  0.86085273  1
  C  C66  1  0.50000000  0.46930797  0.05542245  1
  C  C67  1  0.50000000  0.46924539  0.55618380  1
  C  C68  1  0.50000000  0.46927318  0.22234022  1
  C  C69  1  0.50000000  0.46935162  0.72238727  1
  C  C70  1  0.50000000  0.46923073  0.38936717  1
  C  C71  1  0.50000000  0.46931058  0.88871876  1
  C  C72  1  0.50000000  0.53078463  0.11091376  1
  C  C73  1  0.50000000  0.53074561  0.61142428  1
  C  C74  1  0.50000000  0.53070681  0.27803110  1
  C  C75  1  0.50000000  0.53087805  0.77772285  1
  C  C76  1  0.50000000  0.53054273  0.44522922  1
  C  C77  1  0.50000000  0.53062470  0.94397461  1
  C  C78  1  0.50000000  0.56080131  0.13985231  1
  C  C79  1  0.50000000  0.56179223  0.63914455  1
  C  C80  1  0.50000000  0.56074968  0.30695246  1
  C  C81  1  0.50000000  0.56174799  0.80556862  1
  C  C82  1  0.50000000  0.56029430  0.47381110  1
  C  C83  1  0.50000000  0.56122310  0.97224615  1
  C  C84  1  0.50000000  0.49994706  0.02734453  1
  C  C85  1  0.50000000  0.49997236  0.52823833  1
  C  C86  1  0.50000000  0.50009874  0.19435837  1
  C  C87  1  0.50000000  0.50017481  0.69468064  1
  C  C88  1  0.50000000  0.50002697  0.36141884  1
  C  C89  1  0.50000000  0.50017247  0.86093368  1
  C  C90  1  0.50000000  0.53065983  0.05481024  1
  C  C91  1  0.50000000  0.53062788  0.55597331  1
  C  C92  1  0.50000000  0.53073462  0.22202836  1
  C  C93  1  0.50000000  0.53089464  0.72222799  1
  C  C94  1  0.50000000  0.53065319  0.38912168  1
  C  C95  1  0.50000000  0.53072926  0.88851816  1
  C  C96  1  0.50000000  0.59258552  0.61154008  1
  C  C97  1  0.50000000  0.59258289  0.77781412  1
  C  C98  1  0.50000000  0.59280865  0.94417317  1
  C  C99  1  0.50000000  0.62327184  0.63918261  1
  C  C100  1  0.50000000  0.62315628  0.80524728  1
  C  C101  1  0.50000000  0.62303663  0.96995826  1
  C  C102  1  0.50000000  0.56036262  0.02611591  1
  C  C103  1  0.50000000  0.56124410  0.52767692  1
  C  C104  1  0.50000000  0.56079974  0.19317698  1
  C  C105  1  0.50000000  0.56177315  0.69435439  1
  C  C106  1  0.50000000  0.56069675  0.36028639  1
  C  C107  1  0.50000000  0.56174841  0.86076436  1
  C  C108  1  0.50000000  0.59285802  0.55571520  1
  C  C109  1  0.50000000  0.59260506  0.72210663  1
  C  C110  1  0.50000000  0.59252670  0.88835945  1
  C  C111  1  0.50000000  0.65415144  0.61168220  1
  C  C112  1  0.50000000  0.65419094  0.77772408  1
  C  C113  1  0.50000000  0.65385786  0.94371161  1
  C  C114  1  0.50000000  0.68518685  0.63844953  1
  C  C115  1  0.50000000  0.68494408  0.80524515  1
  C  C116  1  0.50000000  0.68417668  0.97148092  1
  C  C117  1  0.50000000  0.62310439  0.52993010  1
  C  C118  1  0.50000000  0.62319859  0.69468989  1
  C  C119  1  0.50000000  0.62319610  0.86073921  1
  C  C120  1  0.50000000  0.65394403  0.55623381  1
  C  C121  1  0.50000000  0.65421554  0.72223379  1
  C  C122  1  0.50000000  0.65405335  0.88826744  1
  C  C123  1  0.50000000  0.71477942  0.60939156  1
  C  C124  1  0.50000000  0.71478752  0.77681190  1
  C  C125  1  0.50000000  0.71422401  0.94497318  1
  C  C126  1  0.50000000  0.68432612  0.52863253  1
  C  C127  1  0.50000000  0.68498816  0.69475246  1
  C  C128  1  0.50000000  0.68508508  0.86153346  1
  C  C129  1  0.50000000  0.71439012  0.55508906  1
  C  C130  1  0.50000000  0.71480117  0.72325863  1
  C  C131  1  0.50000000  0.71462099  0.89068306  1
  H  H132  1  0.50000000  0.26111508  0.63050443  1
  H  H133  1  0.50000000  0.26148337  0.79690520  1
  H  H134  1  0.50000000  0.26164722  0.96502584  1
  H  H135  1  0.50000000  0.26152801  0.53505517  1
  H  H136  1  0.50000000  0.26141763  0.70348213  1
  H  H137  1  0.50000000  0.26129284  0.86962635  1
  H  H138  1  0.50000000  0.73884133  0.62912880  1
  H  H139  1  0.50000000  0.73867830  0.79701535  1
  H  H140  1  0.50000000  0.73784230  0.96618309  1
  H  H141  1  0.50000000  0.73792050  0.53358698  1
  H  H142  1  0.50000000  0.73872570  0.70317436  1
  H  H143  1  0.50000000  0.73872963  0.87111590  1
  H  H144  1  0.50000000  0.68367992  0.48618376  1
  H  H145  1  0.50000000  0.31416928  0.48718592  1
  H  H146  1  0.50000000  0.68339383  0.01397879  1
  H  H147  1  0.50000000  0.31440844  0.01303929  1
  H  H148  1  0.50000000  0.35371992  0.12005286  1
  H  H149  1  0.50000000  0.35370790  0.28699353  1
  H  H150  1  0.50000000  0.35481204  0.45254342  1
  H  H151  1  0.50000000  0.35482278  0.04729263  1
  H  H152  1  0.50000000  0.35377997  0.21314312  1
  H  H153  1  0.50000000  0.35373473  0.38016691  1
  H  H154  1  0.50000000  0.62410624  0.01230661  1
  H  H155  1  0.50000000  0.62415576  0.48755936  1
  H  H156  1  0.50000000  0.58486541  0.12009160  1
  H  H157  1  0.50000000  0.58475968  0.28704117  1
  H  H158  1  0.50000000  0.58370089  0.45255548  1
  H  H159  1  0.50000000  0.58390473  0.04698607  1
  H  H160  1  0.50000000  0.58476712  0.21321310  1
  H  H161  1  0.50000000  0.58470638  0.38022845  1
