# generated using pymatgen
data_H5C23
_symmetry_space_group_name_H-M   'P 1'
_cell_length_a   20.00000000
_cell_length_b   40.19450000
_cell_length_c   25.91001805
_cell_angle_alpha   90.00000000
_cell_angle_beta   90.00000000
_cell_angle_gamma   90.00000000
_symmetry_Int_Tables_number   1
_chemical_formula_structural   H5C23
_chemical_formula_sum   'H30 C138'
_cell_volume   20828.80440861
_cell_formula_units_Z   6
loop_
 _symmetry_equiv_pos_site_id
 _symmetry_equiv_pos_as_xyz
  1  'x, y, z'
loop_
 _atom_site_type_symbol
 _atom_site_label
 _atom_site_symmetry_multiplicity
 _atom_site_fract_x
 _atom_site_fract_y
 _atom_site_fract_z
 _atom_site_occupancy
  C  C0  1  0.50000000  0.28379936  0.61645455  1
  C  C1  1  0.50000000  0.28565225  0.77640356  1
  C  C2  1  0.50000000  0.28231083  0.93658518  1
  C  C3  1  0.50000000  0.31500153  0.64064627  1
  C  C4  1  0.50000000  0.31575939  0.80418952  1
  C  C5  1  0.50000000  0.31155293  0.96492747  1
  C  C6  1  0.50000000  0.28226123  0.56364588  1
  C  C7  1  0.50000000  0.28564678  0.72379961  1
  C  C8  1  0.50000000  0.28380352  0.88375868  1
  C  C9  1  0.50000000  0.34920376  0.11390308  1
  C  C10  1  0.50000000  0.34530275  0.61170990  1
  C  C11  1  0.50000000  0.34901725  0.27633408  1
  C  C12  1  0.50000000  0.34637310  0.77757394  1
  C  C13  1  0.50000000  0.34840994  0.43849743  1
  C  C14  1  0.50000000  0.34406058  0.94387669  1
  C  C15  1  0.50000000  0.37940209  0.14088284  1
  C  C16  1  0.50000000  0.37651973  0.63897097  1
  C  C17  1  0.50000000  0.37933092  0.30436929  1
  C  C18  1  0.50000000  0.37699079  0.80590211  1
  C  C19  1  0.50000000  0.37696598  0.47098488  1
  C  C20  1  0.50000000  0.37553228  0.97331099  1
  C  C21  1  0.50000000  0.31147419  0.53523143  1
  C  C22  1  0.50000000  0.31573241  0.69594780  1
  C  C23  1  0.50000000  0.31500825  0.85950058  1
  C  C24  1  0.50000000  0.34847796  0.06154447  1
  C  C25  1  0.50000000  0.34399576  0.55622035  1
  C  C26  1  0.50000000  0.34903570  0.22364830  1
  C  C27  1  0.50000000  0.34635916  0.72251332  1
  C  C28  1  0.50000000  0.34913646  0.38612647  1
  C  C29  1  0.50000000  0.34533296  0.88837932  1
  C  C30  1  0.50000000  0.40926592  0.11169021  1
  C  C31  1  0.50000000  0.40703381  0.61068428  1
  C  C32  1  0.50000000  0.41001032  0.27753081  1
  C  C33  1  0.50000000  0.40758501  0.77791751  1
  C  C34  1  0.50000000  0.40820943  0.44398068  1
  C  C35  1  0.50000000  0.40646340  0.94527451  1
  C  C36  1  0.50000000  0.44011522  0.13910678  1
  C  C37  1  0.50000000  0.43778436  0.63861005  1
  C  C38  1  0.50000000  0.44043599  0.30572258  1
  C  C39  1  0.50000000  0.43809566  0.80571269  1
  C  C40  1  0.50000000  0.43861532  0.47220439  1
  C  C41  1  0.50000000  0.43779739  0.97251526  1
  C  C42  1  0.50000000  0.37702928  0.02905373  1
  C  C43  1  0.50000000  0.37546603  0.52672183  1
  C  C44  1  0.50000000  0.37936902  0.19566943  1
  C  C45  1  0.50000000  0.37696104  0.69414341  1
  C  C46  1  0.50000000  0.37934245  0.35915918  1
  C  C47  1  0.50000000  0.37653964  0.86107107  1
  C  C48  1  0.50000000  0.40827713  0.05604856  1
  C  C49  1  0.50000000  0.40640090  0.55471753  1
  C  C50  1  0.50000000  0.41003538  0.22252281  1
  C  C51  1  0.50000000  0.40756324  0.72210177  1
  C  C52  1  0.50000000  0.40921323  0.38835289  1
  C  C53  1  0.50000000  0.40707410  0.88929094  1
  C  C54  1  0.50000000  0.47040429  0.11069766  1
  C  C55  1  0.50000000  0.46874194  0.61090673  1
  C  C56  1  0.50000000  0.47103697  0.27768606  1
  C  C57  1  0.50000000  0.46894880  0.77760283  1
  C  C58  1  0.50000000  0.46959872  0.44455769  1
  C  C59  1  0.50000000  0.46862654  0.94415032  1
  C  C60  1  0.50000000  0.50129111  0.13851296  1
  C  C61  1  0.50000000  0.49958267  0.63895533  1
  C  C62  1  0.50000000  0.50164123  0.30579038  1
  C  C63  1  0.50000000  0.49971713  0.80530174  1
  C  C64  1  0.50000000  0.50000894  0.47291624  1
  C  C65  1  0.50000000  0.49964730  0.97162852  1
  C  C66  1  0.50000000  0.43866828  0.02777891  1
  C  C67  1  0.50000000  0.43774257  0.52746264  1
  C  C68  1  0.50000000  0.44046864  0.19433344  1
  C  C69  1  0.50000000  0.43805930  0.69421594  1
  C  C70  1  0.50000000  0.44008134  0.36094536  1
  C  C71  1  0.50000000  0.43781126  0.86131591  1
  C  C72  1  0.50000000  0.46963191  0.05542978  1
  C  C73  1  0.50000000  0.46858954  0.55576377  1
  C  C74  1  0.50000000  0.47106386  0.22235724  1
  C  C75  1  0.50000000  0.46893232  0.72231369  1
  C  C76  1  0.50000000  0.47039475  0.38930253  1
  C  C77  1  0.50000000  0.46878072  0.88898545  1
  C  C78  1  0.50000000  0.53167623  0.11033433  1
  C  C79  1  0.50000000  0.53028157  0.61164170  1
  C  C80  1  0.50000000  0.53232095  0.27803092  1
  C  C81  1  0.50000000  0.53046160  0.77762621  1
  C  C82  1  0.50000000  0.53095374  0.44567538  1
  C  C83  1  0.50000000  0.53025393  0.94348055  1
  C  C84  1  0.50000000  0.56176886  0.13919237  1
  C  C85  1  0.50000000  0.56136905  0.63951009  1
  C  C86  1  0.50000000  0.56209240  0.30753160  1
  C  C87  1  0.50000000  0.56145909  0.80535405  1
  C  C88  1  0.50000000  0.56040493  0.47484030  1
  C  C89  1  0.50000000  0.56100366  0.97149198  1
  C  C90  1  0.50000000  0.50002927  0.02705874  1
  C  C91  1  0.50000000  0.49961358  0.52830895  1
  C  C92  1  0.50000000  0.50166850  0.19423817  1
  C  C93  1  0.50000000  0.49969808  0.69457783  1
  C  C94  1  0.50000000  0.50129120  0.36150553  1
  C  C95  1  0.50000000  0.49962045  0.86093680  1
  C  C96  1  0.50000000  0.53095536  0.05432606  1
  C  C97  1  0.50000000  0.53021381  0.55645436  1
  C  C98  1  0.50000000  0.53234519  0.22201809  1
  C  C99  1  0.50000000  0.53044292  0.72227042  1
  C  C100  1  0.50000000  0.53167991  0.38967187  1
  C  C101  1  0.50000000  0.53032626  0.88827590  1
  C  C102  1  0.50000000  0.59219257  0.61218928  1
  C  C103  1  0.50000000  0.59232996  0.77771113  1
  C  C104  1  0.50000000  0.59255315  0.94333799  1
  C  C105  1  0.50000000  0.62297320  0.63967945  1
  C  C106  1  0.50000000  0.62301488  0.80503215  1
  C  C107  1  0.50000000  0.62281778  0.96894771  1
  C  C108  1  0.50000000  0.56040558  0.02518737  1
  C  C109  1  0.50000000  0.56097512  0.52849227  1
  C  C110  1  0.50000000  0.56211271  0.19247100  1
  C  C111  1  0.50000000  0.56143660  0.69454984  1
  C  C112  1  0.50000000  0.56177039  0.36080310  1
  C  C113  1  0.50000000  0.56140861  0.86040038  1
  C  C114  1  0.50000000  0.59252428  0.55661608  1
  C  C115  1  0.50000000  0.59231957  0.72219103  1
  C  C116  1  0.50000000  0.59223792  0.88774062  1
  C  C117  1  0.50000000  0.65390540  0.61226375  1
  C  C118  1  0.50000000  0.65412909  0.77763445  1
  C  C119  1  0.50000000  0.65371075  0.94292337  1
  C  C120  1  0.50000000  0.68498147  0.63884552  1
  C  C121  1  0.50000000  0.68488212  0.80505184  1
  C  C122  1  0.50000000  0.68404855  0.97054577  1
  C  C123  1  0.50000000  0.62279635  0.53102303  1
  C  C124  1  0.50000000  0.62301558  0.69491769  1
  C  C125  1  0.50000000  0.62302603  0.86026402  1
  C  C126  1  0.50000000  0.65368763  0.55705121  1
  C  C127  1  0.50000000  0.65413659  0.72235083  1
  C  C128  1  0.50000000  0.65393134  0.88771453  1
  C  C129  1  0.50000000  0.71454658  0.60977376  1
  C  C130  1  0.50000000  0.71477363  0.77665150  1
  C  C131  1  0.50000000  0.71413903  0.94420845  1
  C  C132  1  0.50000000  0.68401531  0.52939313  1
  C  C133  1  0.50000000  0.68489357  0.69493198  1
  C  C134  1  0.50000000  0.68498083  0.86113061  1
  C  C135  1  0.50000000  0.71410666  0.55573767  1
  C  C136  1  0.50000000  0.71478337  0.72335115  1
  C  C137  1  0.50000000  0.71457018  0.89017544  1
  H  H138  1  0.50000000  0.26077634  0.63845191  1
  H  H139  1  0.50000000  0.26168532  0.79596870  1
  H  H140  1  0.50000000  0.25833796  0.95671533  1
  H  H141  1  0.50000000  0.25825784  0.54367713  1
  H  H142  1  0.50000000  0.26165617  0.70433490  1
  H  H143  1  0.50000000  0.26073399  0.86185361  1
  H  H144  1  0.50000000  0.73870279  0.62917141  1
  H  H145  1  0.50000000  0.73865145  0.79685924  1
  H  H146  1  0.50000000  0.73771749  0.96548109  1
  H  H147  1  0.50000000  0.73775560  0.53466574  1
  H  H148  1  0.50000000  0.73868866  0.70322861  1
  H  H149  1  0.50000000  0.73869653  0.87070347  1
  H  H150  1  0.50000000  0.68330880  0.48708950  1
  H  H151  1  0.50000000  0.30616677  0.00529382  1
  H  H152  1  0.50000000  0.32541323  0.13415695  1
  H  H153  1  0.50000000  0.32516557  0.29640899  1
  H  H154  1  0.50000000  0.32361469  0.45300474  1
  H  H155  1  0.50000000  0.30610349  0.49485523  1
  H  H156  1  0.50000000  0.32367491  0.04705247  1
  H  H157  1  0.50000000  0.32522140  0.20344624  1
  H  H158  1  0.50000000  0.32535179  0.36584076  1
  H  H159  1  0.50000000  0.62381075  0.01109885  1
  H  H160  1  0.50000000  0.68340082  0.01284821  1
  H  H161  1  0.50000000  0.62379298  0.48887990  1
  H  H162  1  0.50000000  0.58573745  0.11925557  1
  H  H163  1  0.50000000  0.58618001  0.28788915  1
  H  H164  1  0.50000000  0.58401683  0.45425967  1
  H  H165  1  0.50000000  0.58394421  0.04594034  1
  H  H166  1  0.50000000  0.58620407  0.21206982  1
  H  H167  1  0.50000000  0.58575640  0.38070148  1
