# generated using pymatgen
data_H23C75
_symmetry_space_group_name_H-M   'P 1'
_cell_length_a   10.00000000
_cell_length_b   41.10890000
_cell_length_c   26.15798903
_cell_angle_alpha   90.00000000
_cell_angle_beta   90.00000000
_cell_angle_gamma   90.00000000
_symmetry_Int_Tables_number   1
_chemical_formula_structural   H23C75
_chemical_formula_sum   'H46 C150'
_cell_volume   10753.26155401
_cell_formula_units_Z   2
loop_
 _symmetry_equiv_pos_site_id
 _symmetry_equiv_pos_as_xyz
  1  'x, y, z'
loop_
 _atom_site_type_symbol
 _atom_site_label
 _atom_site_symmetry_multiplicity
 _atom_site_fract_x
 _atom_site_fract_y
 _atom_site_fract_z
 _atom_site_occupancy
  C  C0  1  0.50000000  0.28094202  0.30637104  1
  C  C1  1  0.50000000  0.28929954  0.63914889  1
  C  C2  1  0.50000000  0.28770998  0.97102962  1
  C  C3  1  0.50000000  0.34082684  0.30432797  1
  C  C4  1  0.50000000  0.34912894  0.63921535  1
  C  C5  1  0.50000000  0.34841857  0.97373980  1
  C  C6  1  0.50000000  0.40895419  0.64034530  1
  C  C7  1  0.50000000  0.41019466  0.96570691  1
  C  C8  1  0.50000000  0.46965301  0.64168743  1
  C  C9  1  0.50000000  0.46947294  0.96625533  1
  C  C10  1  0.50000000  0.52968301  0.64121865  1
  C  C11  1  0.50000000  0.52957689  0.96713717  1
  C  C12  1  0.50000000  0.58960554  0.64148422  1
  C  C13  1  0.50000000  0.58956884  0.96683419  1
  C  C14  1  0.50000000  0.64995518  0.64035763  1
  C  C15  1  0.50000000  0.64894645  0.96664882  1
  C  C16  1  0.50000000  0.72725843  0.30492073  1
  C  C17  1  0.50000000  0.70989413  0.63963174  1
  C  C18  1  0.50000000  0.71060128  0.97182648  1
  C  C19  1  0.50000000  0.28572775  0.02630923  1
  C  C20  1  0.50000000  0.28197671  0.36218180  1
  C  C21  1  0.50000000  0.28930303  0.69480852  1
  C  C22  1  0.50000000  0.34605259  0.02922167  1
  C  C23  1  0.50000000  0.34151635  0.35873785  1
  C  C24  1  0.50000000  0.34912831  0.69436928  1
  C  C25  1  0.50000000  0.40892301  0.69521694  1
  C  C26  1  0.50000000  0.46943304  0.69615165  1
  C  C27  1  0.50000000  0.52968269  0.69579908  1
  C  C28  1  0.50000000  0.58979543  0.69590834  1
  C  C29  1  0.50000000  0.65002860  0.69525931  1
  C  C30  1  0.50000000  0.71485336  0.02828374  1
  C  C31  1  0.50000000  0.72473967  0.36099746  1
  C  C32  1  0.50000000  0.71009638  0.69520023  1
  C  C33  1  0.50000000  0.25563344  0.05366753  1
  C  C34  1  0.50000000  0.25370586  0.39352043  1
  C  C35  1  0.50000000  0.26012023  0.72354603  1
  C  C36  1  0.50000000  0.31488776  0.05556071  1
  C  C37  1  0.50000000  0.31263630  0.38874299  1
  C  C38  1  0.50000000  0.31917374  0.72235496  1
  C  C39  1  0.50000000  0.37331131  0.06300787  1
  C  C40  1  0.50000000  0.37139034  0.38495718  1
  C  C41  1  0.50000000  0.37897254  0.72239736  1
  C  C42  1  0.50000000  0.43912899  0.72265695  1
  C  C43  1  0.50000000  0.49958694  0.72285901  1
  C  C44  1  0.50000000  0.55967609  0.72279368  1
  C  C45  1  0.50000000  0.62009285  0.72258697  1
  C  C46  1  0.50000000  0.68929264  0.06426683  1
  C  C47  1  0.50000000  0.69379827  0.38353047  1
  C  C48  1  0.50000000  0.68016604  0.72259085  1
  C  C49  1  0.50000000  0.74621984  0.05144852  1
  C  C50  1  0.50000000  0.75096047  0.39572365  1
  C  C51  1  0.50000000  0.73927299  0.72352861  1
  C  C52  1  0.50000000  0.25374654  0.10644974  1
  C  C53  1  0.50000000  0.25558616  0.44629978  1
  C  C54  1  0.50000000  0.26011529  0.77637509  1
  C  C55  1  0.50000000  0.31267487  0.11125290  1
  C  C56  1  0.50000000  0.31485446  0.44442355  1
  C  C57  1  0.50000000  0.31916879  0.77760976  1
  C  C58  1  0.50000000  0.37143140  0.11501469  1
  C  C59  1  0.50000000  0.37328743  0.43695728  1
  C  C60  1  0.50000000  0.37897402  0.77756539  1
  C  C61  1  0.50000000  0.43912855  0.77729646  1
  C  C62  1  0.50000000  0.49958687  0.77715486  1
  C  C63  1  0.50000000  0.55967544  0.77725640  1
  C  C64  1  0.50000000  0.62010066  0.77746074  1
  C  C65  1  0.50000000  0.69404525  0.11646303  1
  C  C66  1  0.50000000  0.68907048  0.43574036  1
  C  C67  1  0.50000000  0.68017038  0.77743185  1
  C  C68  1  0.50000000  0.75119991  0.10425819  1
  C  C69  1  0.50000000  0.74597763  0.44850069  1
  C  C70  1  0.50000000  0.73928811  0.77645845  1
  C  C71  1  0.50000000  0.28200940  0.13781002  1
  C  C72  1  0.50000000  0.28568752  0.47367129  1
  C  C73  1  0.50000000  0.28928946  0.80515994  1
  C  C74  1  0.50000000  0.34155908  0.14125333  1
  C  C75  1  0.50000000  0.34603199  0.47076122  1
  C  C76  1  0.50000000  0.34912907  0.80559587  1
  C  C77  1  0.50000000  0.40892745  0.80474384  1
  C  C78  1  0.50000000  0.46942621  0.80382767  1
  C  C79  1  0.50000000  0.52968047  0.80423920  1
  C  C80  1  0.50000000  0.58979742  0.80414571  1
  C  C81  1  0.50000000  0.65004498  0.80478604  1
  C  C82  1  0.50000000  0.72497559  0.13900499  1
  C  C83  1  0.50000000  0.71463961  0.47171221  1
  C  C84  1  0.50000000  0.71011687  0.80479904  1
  C  C85  1  0.50000000  0.28094755  0.19363205  1
  C  C86  1  0.50000000  0.28767918  0.52894603  1
  C  C87  1  0.50000000  0.28927978  0.86082293  1
  C  C88  1  0.50000000  0.34085073  0.19567673  1
  C  C89  1  0.50000000  0.34840097  0.52623226  1
  C  C90  1  0.50000000  0.34913237  0.86074278  1
  C  C91  1  0.50000000  0.41019117  0.53424208  1
  C  C92  1  0.50000000  0.40895631  0.85961844  1
  C  C93  1  0.50000000  0.46947754  0.53372256  1
  C  C94  1  0.50000000  0.46965549  0.85829779  1
  C  C95  1  0.50000000  0.52955043  0.53289794  1
  C  C96  1  0.50000000  0.52969610  0.85881605  1
  C  C97  1  0.50000000  0.58952334  0.53323422  1
  C  C98  1  0.50000000  0.58963590  0.85856826  1
  C  C99  1  0.50000000  0.64886862  0.53342101  1
  C  C100  1  0.50000000  0.64999203  0.85970128  1
  C  C101  1  0.50000000  0.72736903  0.19512774  1
  C  C102  1  0.50000000  0.71048097  0.52818122  1
  C  C103  1  0.50000000  0.70992985  0.86037152  1
  C  C104  1  0.50000000  0.25178971  0.22344052  1
  C  C105  1  0.50000000  0.25886382  0.55894157  1
  C  C106  1  0.50000000  0.25955477  0.88857586  1
  C  C107  1  0.50000000  0.31059929  0.22238347  1
  C  C108  1  0.50000000  0.31856994  0.55522708  1
  C  C109  1  0.50000000  0.31888988  0.88893681  1
  C  C110  1  0.50000000  0.37030324  0.22394657  1
  C  C111  1  0.50000000  0.37929714  0.55587285  1
  C  C112  1  0.50000000  0.37894122  0.88811699  1
  C  C113  1  0.50000000  0.44001840  0.56075551  1
  C  C114  1  0.50000000  0.43958167  0.88490419  1
  C  C115  1  0.50000000  0.49965140  0.55921446  1
  C  C116  1  0.50000000  0.49956800  0.88563963  1
  C  C117  1  0.50000000  0.55948494  0.55903395  1
  C  C118  1  0.50000000  0.55962382  0.88576497  1
  C  C119  1  0.50000000  0.61925615  0.55996004  1
  C  C120  1  0.50000000  0.61967067  0.88542364  1
  C  C121  1  0.50000000  0.69831863  0.22368287  1
  C  C122  1  0.50000000  0.67979553  0.55634267  1
  C  C123  1  0.50000000  0.68009813  0.88789901  1
  C  C124  1  0.50000000  0.75659573  0.22333257  1
  C  C125  1  0.50000000  0.73888040  0.55814906  1
  C  C126  1  0.50000000  0.73899157  0.88878475  1
  C  C127  1  0.50000000  0.25178875  0.27658283  1
  C  C128  1  0.50000000  0.25955705  0.61143246  1
  C  C129  1  0.50000000  0.25888432  0.94106267  1
  C  C130  1  0.50000000  0.31059056  0.27761646  1
  C  C131  1  0.50000000  0.31888993  0.61102769  1
  C  C132  1  0.50000000  0.31858447  0.94473444  1
  C  C133  1  0.50000000  0.37028982  0.27609972  1
  C  C134  1  0.50000000  0.37893856  0.61185313  1
  C  C135  1  0.50000000  0.37929569  0.94409862  1
  C  C136  1  0.50000000  0.43958134  0.61506457  1
  C  C137  1  0.50000000  0.44002488  0.93920115  1
  C  C138  1  0.50000000  0.49956090  0.61436818  1
  C  C139  1  0.50000000  0.49966996  0.94079411  1
  C  C140  1  0.50000000  0.55959968  0.61427826  1
  C  C141  1  0.50000000  0.55951996  0.94101726  1
  C  C142  1  0.50000000  0.61963702  0.61463949  1
  C  C143  1  0.50000000  0.61931822  0.94011742  1
  C  C144  1  0.50000000  0.69826937  0.27626559  1
  C  C145  1  0.50000000  0.68004221  0.61214632  1
  C  C146  1  0.50000000  0.67987322  0.94371924  1
  C  C147  1  0.50000000  0.75655083  0.27688278  1
  C  C148  1  0.50000000  0.73893611  0.61116174  1
  C  C149  1  0.50000000  0.73897366  0.94180734  1
  H  H150  1  0.50000000  0.23270199  0.03252844  1
  H  H151  1  0.50000000  0.22958774  0.37575360  1
  H  H152  1  0.50000000  0.23657042  0.70417762  1
  H  H153  1  0.50000000  0.76812923  0.02785638  1
  H  H154  1  0.50000000  0.77608284  0.38165168  1
  H  H155  1  0.50000000  0.76277467  0.70393165  1
  H  H156  1  0.50000000  0.22962527  0.12419320  1
  H  H157  1  0.50000000  0.23264483  0.46741832  1
  H  H158  1  0.50000000  0.23653553  0.79565996  1
  H  H159  1  0.50000000  0.77631569  0.11834265  1
  H  H160  1  0.50000000  0.76788267  0.47206936  1
  H  H161  1  0.50000000  0.76280274  0.79602602  1
  H  H162  1  0.50000000  0.22812490  0.20415490  1
  H  H163  1  0.50000000  0.23511399  0.54014555  1
  H  H164  1  0.50000000  0.23637176  0.86813062  1
  H  H165  1  0.50000000  0.78000577  0.20332621  1
  H  H166  1  0.50000000  0.76271633  0.53970824  1
  H  H167  1  0.50000000  0.76256163  0.86944389  1
  H  H168  1  0.50000000  0.22814094  0.29591281  1
  H  H169  1  0.50000000  0.23639819  0.63189776  1
  H  H170  1  0.50000000  0.23516242  0.95989967  1
  H  H171  1  0.50000000  0.77994284  0.29695494  1
  H  H172  1  0.50000000  0.76251413  0.63044390  1
  H  H173  1  0.50000000  0.76280088  0.96027226  1
  H  H174  1  0.50000000  0.41442647  0.00607909  1
  H  H175  1  0.50000000  0.46908193  0.00819290  1
  H  H176  1  0.50000000  0.52961760  0.00910391  1
  H  H177  1  0.50000000  0.58977078  0.00881974  1
  H  H178  1  0.50000000  0.64583265  0.00750412  1
  H  H179  1  0.50000000  0.39800805  0.05000245  1
  H  H180  1  0.50000000  0.39436427  0.36412951  1
  H  H181  1  0.50000000  0.66396384  0.05381210  1
  H  H182  1  0.50000000  0.67168570  0.36045905  1
  H  H183  1  0.50000000  0.39442621  0.13580830  1
  H  H184  1  0.50000000  0.39798802  0.44993477  1
  H  H185  1  0.50000000  0.67196272  0.13958691  1
  H  H186  1  0.50000000  0.66374478  0.44616260  1
  H  H187  1  0.50000000  0.41439636  0.49385016  1
  H  H188  1  0.50000000  0.46911048  0.49177231  1
  H  H189  1  0.50000000  0.52960229  0.49094052  1
  H  H190  1  0.50000000  0.58973260  0.49125044  1
  H  H191  1  0.50000000  0.64570799  0.49256418  1
  H  H192  1  0.50000000  0.39368563  0.20432301  1
  H  H193  1  0.50000000  0.67460678  0.20501317  1
  H  H194  1  0.50000000  0.39366577  0.29573423  1
  H  H195  1  0.50000000  0.67455797  0.29494092  1
