# generated using pymatgen
data_H7C22
_symmetry_space_group_name_H-M   'P 1'
_cell_length_a   20.00000000
_cell_length_b   37.22700000
_cell_length_c   26.05134719
_cell_angle_alpha   90.00000000
_cell_angle_beta   90.00000000
_cell_angle_gamma   90.00000000
_symmetry_Int_Tables_number   1
_chemical_formula_structural   H7C22
_chemical_formula_sum   'H42 C132'
_cell_volume   19396.27003413
_cell_formula_units_Z   6
loop_
 _symmetry_equiv_pos_site_id
 _symmetry_equiv_pos_as_xyz
  1  'x, y, z'
loop_
 _atom_site_type_symbol
 _atom_site_label
 _atom_site_symmetry_multiplicity
 _atom_site_fract_x
 _atom_site_fract_y
 _atom_site_fract_z
 _atom_site_occupancy
  C  C0  1  0.50000000  0.30696678  0.22206961  1
  C  C1  1  0.50000000  0.31941214  0.55583901  1
  C  C2  1  0.50000000  0.31978157  0.88817109  1
  C  C3  1  0.50000000  0.37310320  0.22402746  1
  C  C4  1  0.50000000  0.38612741  0.55577973  1
  C  C5  1  0.50000000  0.38595341  0.88824629  1
  C  C6  1  0.50000000  0.45289256  0.56039808  1
  C  C7  1  0.50000000  0.45266302  0.88512208  1
  C  C8  1  0.50000000  0.51845359  0.55930535  1
  C  C9  1  0.50000000  0.51882954  0.88568924  1
  C  C10  1  0.50000000  0.58443379  0.55715876  1
  C  C11  1  0.50000000  0.58533006  0.88728968  1
  C  C12  1  0.50000000  0.64916998  0.22198352  1
  C  C13  1  0.50000000  0.65158432  0.55617410  1
  C  C14  1  0.50000000  0.65191998  0.88840598  1
  C  C15  1  0.50000000  0.71473438  0.22372810  1
  C  C16  1  0.50000000  0.71693931  0.55655213  1
  C  C17  1  0.50000000  0.71721113  0.89033500  1
  C  C18  1  0.50000000  0.30692070  0.27799056  1
  C  C19  1  0.50000000  0.31963231  0.61194610  1
  C  C20  1  0.50000000  0.31956170  0.94423724  1
  C  C21  1  0.50000000  0.37304264  0.27623681  1
  C  C22  1  0.50000000  0.38586788  0.61170376  1
  C  C23  1  0.50000000  0.38619852  0.94415177  1
  C  C24  1  0.50000000  0.45258159  0.61481487  1
  C  C25  1  0.50000000  0.45297792  0.93954746  1
  C  C26  1  0.50000000  0.51874797  0.61431394  1
  C  C27  1  0.50000000  0.51854686  0.94072826  1
  C  C28  1  0.50000000  0.58523980  0.61265881  1
  C  C29  1  0.50000000  0.58453530  0.94280224  1
  C  C30  1  0.50000000  0.64907515  0.27796331  1
  C  C31  1  0.50000000  0.65181714  0.61153013  1
  C  C32  1  0.50000000  0.65171867  0.94377006  1
  C  C33  1  0.50000000  0.71464424  0.27647934  1
  C  C34  1  0.50000000  0.71711400  0.60939395  1
  C  C35  1  0.50000000  0.71708593  0.94321065  1
  C  C36  1  0.50000000  0.27549050  0.30949743  1
  C  C37  1  0.50000000  0.28751359  0.64065231  1
  C  C38  1  0.50000000  0.28592078  0.97019144  1
  C  C39  1  0.50000000  0.34039126  0.30429936  1
  C  C40  1  0.50000000  0.35273222  0.63942114  1
  C  C41  1  0.50000000  0.35190790  0.97328277  1
  C  C42  1  0.50000000  0.41882370  0.64021352  1
  C  C43  1  0.50000000  0.42027168  0.96629278  1
  C  C44  1  0.50000000  0.48572677  0.64163018  1
  C  C45  1  0.50000000  0.48567810  0.96661375  1
  C  C46  1  0.50000000  0.55222162  0.64060050  1
  C  C47  1  0.50000000  0.55165044  0.96752185  1
  C  C48  1  0.50000000  0.61683133  0.30757583  1
  C  C49  1  0.50000000  0.61840301  0.63966381  1
  C  C50  1  0.50000000  0.61841404  0.97149862  1
  C  C51  1  0.50000000  0.68221421  0.30550679  1
  C  C52  1  0.50000000  0.68483372  0.63868494  1
  C  C53  1  0.50000000  0.68459929  0.97200624  1
  C  C54  1  0.50000000  0.28300805  0.02270453  1
  C  C55  1  0.50000000  0.27706676  0.36265213  1
  C  C56  1  0.50000000  0.28753639  0.69378388  1
  C  C57  1  0.50000000  0.34856168  0.02931078  1
  C  C58  1  0.50000000  0.34180821  0.35928600  1
  C  C59  1  0.50000000  0.35271031  0.69464075  1
  C  C60  1  0.50000000  0.41886031  0.69530964  1
  C  C61  1  0.50000000  0.48570274  0.69613042  1
  C  C62  1  0.50000000  0.55236527  0.69540568  1
  C  C63  1  0.50000000  0.61895738  0.02493985  1
  C  C64  1  0.50000000  0.61718128  0.36056376  1
  C  C65  1  0.50000000  0.61863382  0.69455255  1
  C  C66  1  0.50000000  0.68430840  0.02767287  1
  C  C67  1  0.50000000  0.68258257  0.36128074  1
  C  C68  1  0.50000000  0.68499589  0.69451327  1
  C  C69  1  0.50000000  0.31393208  0.05423253  1
  C  C70  1  0.50000000  0.31041489  0.38997384  1
  C  C71  1  0.50000000  0.31965239  0.72222735  1
  C  C72  1  0.50000000  0.37832656  0.06363978  1
  C  C73  1  0.50000000  0.37531434  0.38437667  1
  C  C74  1  0.50000000  0.38583150  0.72246669  1
  C  C75  1  0.50000000  0.45220061  0.72266939  1
  C  C76  1  0.50000000  0.51906392  0.72270061  1
  C  C77  1  0.50000000  0.58556572  0.72243635  1
  C  C78  1  0.50000000  0.65080785  0.05446767  1
  C  C79  1  0.50000000  0.64976565  0.38940988  1
  C  C80  1  0.50000000  0.65196246  0.72224026  1
  C  C81  1  0.50000000  0.71635211  0.05751793  1
  C  C82  1  0.50000000  0.71537615  0.38967285  1
  C  C83  1  0.50000000  0.71724614  0.72327325  1
  C  C84  1  0.50000000  0.31057046  0.11011317  1
  C  C85  1  0.50000000  0.31376341  0.44586884  1
  C  C86  1  0.50000000  0.31963470  0.77796268  1
  C  C87  1  0.50000000  0.37545707  0.11572410  1
  C  C88  1  0.50000000  0.37818204  0.43645623  1
  C  C89  1  0.50000000  0.38584589  0.77747339  1
  C  C90  1  0.50000000  0.45221851  0.77727855  1
  C  C91  1  0.50000000  0.51908094  0.77725440  1
  C  C92  1  0.50000000  0.58557944  0.77747216  1
  C  C93  1  0.50000000  0.65000995  0.11051784  1
  C  C94  1  0.50000000  0.65055350  0.44547207  1
  C  C95  1  0.50000000  0.65198333  0.77757039  1
  C  C96  1  0.50000000  0.71559091  0.11033614  1
  C  C97  1  0.50000000  0.71613220  0.44248079  1
  C  C98  1  0.50000000  0.71727390  0.77638012  1
  C  C99  1  0.50000000  0.27719528  0.13735162  1
  C  C100  1  0.50000000  0.28284830  0.47737388  1
  C  C101  1  0.50000000  0.28753837  0.80649189  1
  C  C102  1  0.50000000  0.34195180  0.14083816  1
  C  C103  1  0.50000000  0.34840825  0.47076192  1
  C  C104  1  0.50000000  0.35274389  0.80534704  1
  C  C105  1  0.50000000  0.41888887  0.80462198  1
  C  C106  1  0.50000000  0.48573725  0.80383025  1
  C  C107  1  0.50000000  0.55239253  0.80454176  1
  C  C108  1  0.50000000  0.61740213  0.13930994  1
  C  C109  1  0.50000000  0.61873372  0.47507815  1
  C  C110  1  0.50000000  0.61865841  0.80530489  1
  C  C111  1  0.50000000  0.68279625  0.13874122  1
  C  C112  1  0.50000000  0.68405395  0.47222946  1
  C  C113  1  0.50000000  0.68505537  0.80521670  1
  C  C114  1  0.50000000  0.27556004  0.19050108  1
  C  C115  1  0.50000000  0.28574332  0.52991330  1
  C  C116  1  0.50000000  0.28762318  0.85962076  1
  C  C117  1  0.50000000  0.34048939  0.19585217  1
  C  C118  1  0.50000000  0.35177341  0.52678002  1
  C  C119  1  0.50000000  0.35283028  0.86057133  1
  C  C120  1  0.50000000  0.42021596  0.53357239  1
  C  C121  1  0.50000000  0.41889471  0.85972383  1
  C  C122  1  0.50000000  0.48561318  0.53340892  1
  C  C123  1  0.50000000  0.48580548  0.85834572  1
  C  C124  1  0.50000000  0.55153788  0.53252252  1
  C  C125  1  0.50000000  0.55229706  0.85937345  1
  C  C126  1  0.50000000  0.61699359  0.19227308  1
  C  C127  1  0.50000000  0.61827773  0.52848451  1
  C  C128  1  0.50000000  0.61849261  0.86024700  1
  C  C129  1  0.50000000  0.68236475  0.19453764  1
  C  C130  1  0.50000000  0.68440658  0.52785056  1
  C  C131  1  0.50000000  0.68490041  0.86109898  1
  H  H132  1  0.50000000  0.74067822  0.20411606  1
  H  H133  1  0.50000000  0.74278918  0.53665439  1
  H  H134  1  0.50000000  0.74318544  0.87073018  1
  H  H135  1  0.50000000  0.74049601  0.29632050  1
  H  H136  1  0.50000000  0.74316573  0.62876642  1
  H  H137  1  0.50000000  0.74292090  0.96317996  1
  H  H138  1  0.50000000  0.24899385  0.29125663  1
  H  H139  1  0.50000000  0.26133729  0.62172226  1
  H  H140  1  0.50000000  0.26102424  0.94803570  1
  H  H141  1  0.50000000  0.25624114  0.03994657  1
  H  H142  1  0.50000000  0.25165845  0.38379996  1
  H  H143  1  0.50000000  0.26159984  0.71344039  1
  H  H144  1  0.50000000  0.74258732  0.03863286  1
  H  H145  1  0.50000000  0.74101266  0.36924800  1
  H  H146  1  0.50000000  0.74317034  0.70356338  1
  H  H147  1  0.50000000  0.74128201  0.13064179  1
  H  H148  1  0.50000000  0.74230645  0.46156977  1
  H  H149  1  0.50000000  0.74325472  0.79592692  1
  H  H150  1  0.50000000  0.25183903  0.11606665  1
  H  H151  1  0.50000000  0.25612698  0.45996568  1
  H  H152  1  0.50000000  0.26154818  0.78699814  1
  H  H153  1  0.50000000  0.24903987  0.20871369  1
  H  H154  1  0.50000000  0.26096186  0.55234363  1
  H  H155  1  0.50000000  0.26159583  0.87898497  1
  H  H156  1  0.50000000  0.39899000  0.20451420  1
  H  H157  1  0.50000000  0.39884525  0.29596224  1
  H  H158  1  0.50000000  0.42493697  0.00690285  1
  H  H159  1  0.50000000  0.48533896  0.00873186  1
  H  H160  1  0.50000000  0.55000983  0.00945241  1
  H  H161  1  0.50000000  0.59078385  0.28810126  1
  H  H162  1  0.50000000  0.59336673  0.04528848  1
  H  H163  1  0.50000000  0.59131667  0.38057480  1
  H  H164  1  0.50000000  0.40565723  0.05081345  1
  H  H165  1  0.50000000  0.40036994  0.36272795  1
  H  H166  1  0.50000000  0.40055787  0.13724114  1
  H  H167  1  0.50000000  0.40551846  0.44920717  1
  H  H168  1  0.50000000  0.59149883  0.11943668  1
  H  H169  1  0.50000000  0.59311332  0.45482674  1
  H  H170  1  0.50000000  0.42498289  0.49295051  1
  H  H171  1  0.50000000  0.48532972  0.49133151  1
  H  H172  1  0.50000000  0.54985981  0.49063496  1
  H  H173  1  0.50000000  0.59091577  0.21163484  1
