# generated using pymatgen
data_H5C22
_symmetry_space_group_name_H-M   'P 1'
_cell_length_a   20.00000000
_cell_length_b   37.22700000
_cell_length_c   25.92524413
_cell_angle_alpha   90.00000000
_cell_angle_beta   90.00000000
_cell_angle_gamma   90.00000000
_symmetry_Int_Tables_number   1
_chemical_formula_structural   H5C22
_chemical_formula_sum   'H30 C132'
_cell_volume   19302.38126245
_cell_formula_units_Z   6
loop_
 _symmetry_equiv_pos_site_id
 _symmetry_equiv_pos_as_xyz
  1  'x, y, z'
loop_
 _atom_site_type_symbol
 _atom_site_label
 _atom_site_symmetry_multiplicity
 _atom_site_fract_x
 _atom_site_fract_y
 _atom_site_fract_z
 _atom_site_occupancy
  C  C0  1  0.50000000  0.31656193  0.55590881  1
  C  C1  1  0.50000000  0.31699054  0.88761086  1
  C  C2  1  0.50000000  0.38330525  0.55635528  1
  C  C3  1  0.50000000  0.38389573  0.88779288  1
  C  C4  1  0.50000000  0.44850049  0.22199545  1
  C  C5  1  0.50000000  0.45067544  0.55638794  1
  C  C6  1  0.50000000  0.45059623  0.88852494  1
  C  C7  1  0.50000000  0.51465138  0.22231609  1
  C  C8  1  0.50000000  0.51723199  0.55572115  1
  C  C9  1  0.50000000  0.51702833  0.88907348  1
  C  C10  1  0.50000000  0.58052859  0.22250433  1
  C  C11  1  0.50000000  0.58437795  0.55469765  1
  C  C12  1  0.50000000  0.58370803  0.88933594  1
  C  C13  1  0.50000000  0.64632464  0.22363322  1
  C  C14  1  0.50000000  0.65163947  0.55620597  1
  C  C15  1  0.50000000  0.65028064  0.88830101  1
  C  C16  1  0.50000000  0.71827736  0.56354876  1
  C  C17  1  0.50000000  0.71669388  0.88362503  1
  C  C18  1  0.50000000  0.31700887  0.61239611  1
  C  C19  1  0.50000000  0.31656140  0.94409392  1
  C  C20  1  0.50000000  0.38389987  0.61221419  1
  C  C21  1  0.50000000  0.38330255  0.94364147  1
  C  C22  1  0.50000000  0.44850675  0.27800936  1
  C  C23  1  0.50000000  0.45059439  0.61148794  1
  C  C24  1  0.50000000  0.45066478  0.94362923  1
  C  C25  1  0.50000000  0.51465415  0.27768571  1
  C  C26  1  0.50000000  0.51703384  0.61092639  1
  C  C27  1  0.50000000  0.51722083  0.94427804  1
  C  C28  1  0.50000000  0.58053080  0.27748860  1
  C  C29  1  0.50000000  0.58371370  0.61066819  1
  C  C30  1  0.50000000  0.58436696  0.94530463  1
  C  C31  1  0.50000000  0.64632606  0.27635551  1
  C  C32  1  0.50000000  0.65028384  0.61169843  1
  C  C33  1  0.50000000  0.65163071  0.94379250  1
  C  C34  1  0.50000000  0.71669933  0.61638933  1
  C  C35  1  0.50000000  0.71827257  0.93646329  1
  C  C36  1  0.50000000  0.28487947  0.64060806  1
  C  C37  1  0.50000000  0.28580900  0.97344542  1
  C  C38  1  0.50000000  0.35036149  0.63951495  1
  C  C39  1  0.50000000  0.35079027  0.96914813  1
  C  C40  1  0.50000000  0.41639252  0.30750638  1
  C  C41  1  0.50000000  0.41688752  0.63923962  1
  C  C42  1  0.50000000  0.41746585  0.97164634  1
  C  C43  1  0.50000000  0.48163026  0.30579217  1
  C  C44  1  0.50000000  0.48371571  0.63883256  1
  C  C45  1  0.50000000  0.48374983  0.97173530  1
  C  C46  1  0.50000000  0.54766093  0.30566672  1
  C  C47  1  0.50000000  0.55045979  0.63858056  1
  C  C48  1  0.50000000  0.55050331  0.97252462  1
  C  C49  1  0.50000000  0.61363738  0.30430733  1
  C  C50  1  0.50000000  0.61659538  0.63891337  1
  C  C51  1  0.50000000  0.61773448  0.97325430  1
  C  C52  1  0.50000000  0.68303294  0.64060120  1
  C  C53  1  0.50000000  0.68675157  0.96482679  1
  C  C54  1  0.50000000  0.28490908  0.69390517  1
  C  C55  1  0.50000000  0.35044841  0.69474529  1
  C  C56  1  0.50000000  0.41822471  0.02527341  1
  C  C57  1  0.50000000  0.41674900  0.36078081  1
  C  C58  1  0.50000000  0.41699461  0.69476000  1
  C  C59  1  0.50000000  0.48338095  0.02712187  1
  C  C60  1  0.50000000  0.48203201  0.36150246  1
  C  C61  1  0.50000000  0.48366350  0.69457342  1
  C  C62  1  0.50000000  0.54960361  0.02779081  1
  C  C63  1  0.50000000  0.54806657  0.36091911  1
  C  C64  1  0.50000000  0.55013401  0.69411316  1
  C  C65  1  0.50000000  0.61615227  0.02909427  1
  C  C66  1  0.50000000  0.61365882  0.35916673  1
  C  C67  1  0.50000000  0.61608118  0.69415537  1
  C  C68  1  0.50000000  0.68220449  0.69592983  1
  C  C69  1  0.50000000  0.31722566  0.72206983  1
  C  C70  1  0.50000000  0.38390153  0.72234197  1
  C  C71  1  0.50000000  0.44999091  0.05437498  1
  C  C72  1  0.50000000  0.44920357  0.38963569  1
  C  C73  1  0.50000000  0.45034985  0.72233407  1
  C  C74  1  0.50000000  0.51620481  0.05541875  1
  C  C75  1  0.50000000  0.51537642  0.38926696  1
  C  C76  1  0.50000000  0.51672680  0.72216917  1
  C  C77  1  0.50000000  0.58244657  0.05605156  1
  C  C78  1  0.50000000  0.58140771  0.38832870  1
  C  C79  1  0.50000000  0.58308709  0.72201737  1
  C  C80  1  0.50000000  0.64693013  0.06151215  1
  C  C81  1  0.50000000  0.64624241  0.38606664  1
  C  C82  1  0.50000000  0.64913327  0.72249270  1
  C  C83  1  0.50000000  0.71469195  0.72368930  1
  C  C84  1  0.50000000  0.31722547  0.77793035  1
  C  C85  1  0.50000000  0.38389660  0.77764908  1
  C  C86  1  0.50000000  0.44919544  0.11037396  1
  C  C87  1  0.50000000  0.45000081  0.44562807  1
  C  C88  1  0.50000000  0.45035195  0.77766480  1
  C  C89  1  0.50000000  0.51536870  0.11073220  1
  C  C90  1  0.50000000  0.51621581  0.44457997  1
  C  C91  1  0.50000000  0.51672368  0.77783486  1
  C  C92  1  0.50000000  0.58139896  0.11167309  1
  C  C93  1  0.50000000  0.58246237  0.44395270  1
  C  C94  1  0.50000000  0.58308703  0.77798608  1
  C  C95  1  0.50000000  0.64623475  0.11393044  1
  C  C96  1  0.50000000  0.64694745  0.43848044  1
  C  C97  1  0.50000000  0.64913708  0.77751279  1
  C  C98  1  0.50000000  0.71469738  0.77629764  1
  C  C99  1  0.50000000  0.28490253  0.80606480  1
  C  C100  1  0.50000000  0.35045666  0.80525247  1
  C  C101  1  0.50000000  0.41674215  0.13923214  1
  C  C102  1  0.50000000  0.41823874  0.47473649  1
  C  C103  1  0.50000000  0.41698992  0.80521773  1
  C  C104  1  0.50000000  0.48202633  0.13850312  1
  C  C105  1  0.50000000  0.48339131  0.47288034  1
  C  C106  1  0.50000000  0.48366304  0.80543031  1
  C  C107  1  0.50000000  0.54805842  0.13907942  1
  C  C108  1  0.50000000  0.54961591  0.47221167  1
  C  C109  1  0.50000000  0.55012959  0.80588750  1
  C  C110  1  0.50000000  0.61365180  0.14082885  1
  C  C111  1  0.50000000  0.61617206  0.47090988  1
  C  C112  1  0.50000000  0.61608134  0.80584946  1
  C  C113  1  0.50000000  0.68221187  0.80406961  1
  C  C114  1  0.50000000  0.28580983  0.52654194  1
  C  C115  1  0.50000000  0.28487748  0.85937295  1
  C  C116  1  0.50000000  0.35079218  0.53083623  1
  C  C117  1  0.50000000  0.35035926  0.86049674  1
  C  C118  1  0.50000000  0.41638027  0.19250724  1
  C  C119  1  0.50000000  0.41748033  0.52836197  1
  C  C120  1  0.50000000  0.41688728  0.86075951  1
  C  C121  1  0.50000000  0.48162523  0.19421290  1
  C  C122  1  0.50000000  0.48375948  0.52827398  1
  C  C123  1  0.50000000  0.48371645  0.86117027  1
  C  C124  1  0.50000000  0.54765642  0.19433040  1
  C  C125  1  0.50000000  0.55051525  0.52747742  1
  C  C126  1  0.50000000  0.55045453  0.86142088  1
  C  C127  1  0.50000000  0.61363470  0.19568642  1
  C  C128  1  0.50000000  0.61774659  0.52674820  1
  C  C129  1  0.50000000  0.61659113  0.86109171  1
  C  C130  1  0.50000000  0.68676132  0.53517112  1
  C  C131  1  0.50000000  0.68303295  0.85940002  1
  H  H132  1  0.50000000  0.74411245  0.54336597  1
  H  H133  1  0.50000000  0.74164356  0.86175858  1
  H  H134  1  0.50000000  0.74164760  0.63826683  1
  H  H135  1  0.50000000  0.74410241  0.95666565  1
  H  H136  1  0.50000000  0.25912024  0.62033754  1
  H  H137  1  0.50000000  0.25870737  0.95717362  1
  H  H138  1  0.50000000  0.25904789  0.71381277  1
  H  H139  1  0.50000000  0.74048748  0.70393272  1
  H  H140  1  0.50000000  0.74049922  0.79603893  1
  H  H141  1  0.50000000  0.25904248  0.78615563  1
  H  H142  1  0.50000000  0.25869135  0.54277592  1
  H  H143  1  0.50000000  0.25915579  0.87969752  1
  H  H144  1  0.50000000  0.67204946  0.20348518  1
  H  H145  1  0.50000000  0.67205382  0.29649186  1
  H  H146  1  0.50000000  0.28777407  0.01559883  1
  H  H147  1  0.50000000  0.34988074  0.01128102  1
  H  H148  1  0.50000000  0.39036502  0.28793332  1
  H  H149  1  0.50000000  0.69268220  0.00513739  1
  H  H150  1  0.50000000  0.39281311  0.04597662  1
  H  H151  1  0.50000000  0.39081802  0.38059230  1
  H  H152  1  0.50000000  0.67366309  0.04699348  1
  H  H153  1  0.50000000  0.67202120  0.36600068  1
  H  H154  1  0.50000000  0.67200634  0.13401300  1
  H  H155  1  0.50000000  0.67369639  0.45294996  1
  H  H156  1  0.50000000  0.39081959  0.11940634  1
  H  H157  1  0.50000000  0.39280838  0.45408539  1
  H  H158  1  0.50000000  0.28783062  0.48438305  1
  H  H159  1  0.50000000  0.34988499  0.48869082  1
  H  H160  1  0.50000000  0.39035432  0.21208876  1
  H  H161  1  0.50000000  0.69269033  0.49485504  1
