# generated using pymatgen
data_H5C22
_symmetry_space_group_name_H-M   'P 1'
_cell_length_a   20.00000000
_cell_length_b   37.22700000
_cell_length_c   25.94861355
_cell_angle_alpha   90.00000000
_cell_angle_beta   90.00000000
_cell_angle_gamma   90.00000000
_symmetry_Int_Tables_number   1
_chemical_formula_structural   H5C22
_chemical_formula_sum   'H30 C132'
_cell_volume   19319.78073438
_cell_formula_units_Z   6
loop_
 _symmetry_equiv_pos_site_id
 _symmetry_equiv_pos_as_xyz
  1  'x, y, z'
loop_
 _atom_site_type_symbol
 _atom_site_label
 _atom_site_symmetry_multiplicity
 _atom_site_fract_x
 _atom_site_fract_y
 _atom_site_fract_z
 _atom_site_occupancy
  C  C0  1  0.50000000  0.31414338  0.55957581  1
  C  C1  1  0.50000000  0.31529654  0.88499314  1
  C  C2  1  0.50000000  0.38786025  0.22371040  1
  C  C3  1  0.50000000  0.38184408  0.55606409  1
  C  C4  1  0.50000000  0.38275511  0.88793491  1
  C  C5  1  0.50000000  0.45371329  0.22255548  1
  C  C6  1  0.50000000  0.44889248  0.55464948  1
  C  C7  1  0.50000000  0.44910475  0.88952111  1
  C  C8  1  0.50000000  0.51946010  0.22233358  1
  C  C9  1  0.50000000  0.51576815  0.55584518  1
  C  C10  1  0.50000000  0.51554016  0.88895370  1
  C  C11  1  0.50000000  0.58563654  0.22190626  1
  C  C12  1  0.50000000  0.58223714  0.55654125  1
  C  C13  1  0.50000000  0.58203797  0.88810240  1
  C  C14  1  0.50000000  0.64929446  0.55701401  1
  C  C15  1  0.50000000  0.64881221  0.88801071  1
  C  C16  1  0.50000000  0.71477422  0.55816037  1
  C  C17  1  0.50000000  0.71453947  0.88830241  1
  C  C18  1  0.50000000  0.31529923  0.61500412  1
  C  C19  1  0.50000000  0.31414302  0.94041683  1
  C  C20  1  0.50000000  0.38785935  0.27627965  1
  C  C21  1  0.50000000  0.38274911  0.61206443  1
  C  C22  1  0.50000000  0.38184161  0.94393340  1
  C  C23  1  0.50000000  0.45371357  0.27744231  1
  C  C24  1  0.50000000  0.44910004  0.61048219  1
  C  C25  1  0.50000000  0.44889494  0.94535776  1
  C  C26  1  0.50000000  0.51946084  0.27766326  1
  C  C27  1  0.50000000  0.51553643  0.61104156  1
  C  C28  1  0.50000000  0.51576947  0.94415060  1
  C  C29  1  0.50000000  0.58563862  0.27809574  1
  C  C30  1  0.50000000  0.58203725  0.61189537  1
  C  C31  1  0.50000000  0.58223790  0.94345353  1
  C  C32  1  0.50000000  0.64881377  0.61199364  1
  C  C33  1  0.50000000  0.64929247  0.94299001  1
  C  C34  1  0.50000000  0.71453480  0.61170755  1
  C  C35  1  0.50000000  0.71478049  0.94185360  1
  C  C36  1  0.50000000  0.28322925  0.64281108  1
  C  C37  1  0.50000000  0.28338285  0.96991711  1
  C  C38  1  0.50000000  0.34931210  0.64014524  1
  C  C39  1  0.50000000  0.34786150  0.96564483  1
  C  C40  1  0.50000000  0.42057385  0.30416302  1
  C  C41  1  0.50000000  0.41571771  0.63883799  1
  C  C42  1  0.50000000  0.41566103  0.97359795  1
  C  C43  1  0.50000000  0.48648093  0.30569400  1
  C  C44  1  0.50000000  0.48206211  0.63844597  1
  C  C45  1  0.50000000  0.48276541  0.97246968  1
  C  C46  1  0.50000000  0.55248546  0.30580082  1
  C  C47  1  0.50000000  0.54874117  0.63924878  1
  C  C48  1  0.50000000  0.54937206  0.97164963  1
  C  C49  1  0.50000000  0.61765043  0.30772603  1
  C  C50  1  0.50000000  0.61524491  0.63964063  1
  C  C51  1  0.50000000  0.61545465  0.97110852  1
  C  C52  1  0.50000000  0.68203233  0.63942333  1
  C  C53  1  0.50000000  0.68247222  0.96883870  1
  C  C54  1  0.50000000  0.28371256  0.69564479  1
  C  C55  1  0.50000000  0.34969525  0.69511929  1
  C  C56  1  0.50000000  0.41725254  0.02928677  1
  C  C57  1  0.50000000  0.42053629  0.35879579  1
  C  C58  1  0.50000000  0.41601544  0.69454558  1
  C  C59  1  0.50000000  0.48389759  0.02784631  1
  C  C60  1  0.50000000  0.48595757  0.36102299  1
  C  C61  1  0.50000000  0.48227897  0.69433660  1
  C  C62  1  0.50000000  0.55008427  0.02694671  1
  C  C63  1  0.50000000  0.55194736  0.36152133  1
  C  C64  1  0.50000000  0.54869212  0.69459787  1
  C  C65  1  0.50000000  0.61514280  0.02490984  1
  C  C66  1  0.50000000  0.61712944  0.36107272  1
  C  C67  1  0.50000000  0.61504080  0.69459400  1
  C  C68  1  0.50000000  0.68165731  0.69524733  1
  C  C69  1  0.50000000  0.31654228  0.72235677  1
  C  C70  1  0.50000000  0.38669045  0.06237432  1
  C  C71  1  0.50000000  0.38789658  0.38535782  1
  C  C72  1  0.50000000  0.38312443  0.72241370  1
  C  C73  1  0.50000000  0.45116296  0.05615763  1
  C  C74  1  0.50000000  0.45258376  0.38828240  1
  C  C75  1  0.50000000  0.44918848  0.72228280  1
  C  C76  1  0.50000000  0.51737076  0.05537304  1
  C  C77  1  0.50000000  0.51852371  0.38933754  1
  C  C78  1  0.50000000  0.51526397  0.72224943  1
  C  C79  1  0.50000000  0.58357872  0.05409527  1
  C  C80  1  0.50000000  0.58464280  0.38973451  1
  C  C81  1  0.50000000  0.58181468  0.72219384  1
  C  C82  1  0.50000000  0.64852440  0.72241444  1
  C  C83  1  0.50000000  0.71400882  0.72351456  1
  C  C84  1  0.50000000  0.31654407  0.77764139  1
  C  C85  1  0.50000000  0.38789347  0.11463396  1
  C  C86  1  0.50000000  0.38668700  0.43761971  1
  C  C87  1  0.50000000  0.38312056  0.77759533  1
  C  C88  1  0.50000000  0.45258436  0.11171591  1
  C  C89  1  0.50000000  0.45116185  0.44384357  1
  C  C90  1  0.50000000  0.44918569  0.77771689  1
  C  C91  1  0.50000000  0.51852391  0.11066066  1
  C  C92  1  0.50000000  0.51737111  0.44462784  1
  C  C93  1  0.50000000  0.51526136  0.77775288  1
  C  C94  1  0.50000000  0.58464501  0.11026564  1
  C  C95  1  0.50000000  0.58357473  0.44590617  1
  C  C96  1  0.50000000  0.58181052  0.77780451  1
  C  C97  1  0.50000000  0.64852233  0.77759420  1
  C  C98  1  0.50000000  0.71401096  0.77649098  1
  C  C99  1  0.50000000  0.28371376  0.80434634  1
  C  C100  1  0.50000000  0.34969274  0.80489114  1
  C  C101  1  0.50000000  0.42053361  0.14119757  1
  C  C102  1  0.50000000  0.41724931  0.47071345  1
  C  C103  1  0.50000000  0.41601380  0.80545322  1
  C  C104  1  0.50000000  0.48595857  0.13897761  1
  C  C105  1  0.50000000  0.48389695  0.47215164  1
  C  C106  1  0.50000000  0.48227531  0.80566272  1
  C  C107  1  0.50000000  0.55194793  0.13847584  1
  C  C108  1  0.50000000  0.55008114  0.47306196  1
  C  C109  1  0.50000000  0.54868903  0.80540381  1
  C  C110  1  0.50000000  0.61712832  0.13893128  1
  C  C111  1  0.50000000  0.61513989  0.47508978  1
  C  C112  1  0.50000000  0.61503533  0.80540807  1
  C  C113  1  0.50000000  0.68165926  0.80476025  1
  C  C114  1  0.50000000  0.28337783  0.53007244  1
  C  C115  1  0.50000000  0.28322862  0.85718086  1
  C  C116  1  0.50000000  0.34786399  0.53435600  1
  C  C117  1  0.50000000  0.34931314  0.85986429  1
  C  C118  1  0.50000000  0.42057446  0.19583026  1
  C  C119  1  0.50000000  0.41566437  0.52640591  1
  C  C120  1  0.50000000  0.41572504  0.86116189  1
  C  C121  1  0.50000000  0.48648055  0.19430477  1
  C  C122  1  0.50000000  0.48276009  0.52752931  1
  C  C123  1  0.50000000  0.48206302  0.86155438  1
  C  C124  1  0.50000000  0.55248459  0.19419600  1
  C  C125  1  0.50000000  0.54936511  0.52835106  1
  C  C126  1  0.50000000  0.54874444  0.86074740  1
  C  C127  1  0.50000000  0.61764879  0.19227795  1
  C  C128  1  0.50000000  0.61545750  0.52889129  1
  C  C129  1  0.50000000  0.61524442  0.86035899  1
  C  C130  1  0.50000000  0.68247205  0.53116844  1
  C  C131  1  0.50000000  0.68203399  0.86058493  1
  H  H132  1  0.50000000  0.74029361  0.53712485  1
  H  H133  1  0.50000000  0.74020724  0.86798617  1
  H  H134  1  0.50000000  0.74019493  0.63203319  1
  H  H135  1  0.50000000  0.74030885  0.96288229  1
  H  H136  1  0.50000000  0.25758871  0.62229429  1
  H  H137  1  0.50000000  0.25629903  0.95373184  1
  H  H138  1  0.50000000  0.25814104  0.71614242  1
  H  H139  1  0.50000000  0.73978414  0.70347881  1
  H  H140  1  0.50000000  0.73979140  0.79651884  1
  H  H141  1  0.50000000  0.25814889  0.78383723  1
  H  H142  1  0.50000000  0.25628896  0.54625551  1
  H  H143  1  0.50000000  0.25759538  0.87771908  1
  H  H144  1  0.50000000  0.36211833  0.20369735  1
  H  H145  1  0.50000000  0.36211859  0.29629577  1
  H  H146  1  0.50000000  0.28533688  0.01204353  1
  H  H147  1  0.50000000  0.34343338  0.00609345  1
  H  H148  1  0.50000000  0.64377651  0.28839338  1
  H  H149  1  0.50000000  0.68353291  0.01089045  1
  H  H150  1  0.50000000  0.64070405  0.04528223  1
  H  H151  1  0.50000000  0.64300904  0.38103946  1
  H  H152  1  0.50000000  0.35949403  0.04949203  1
  H  H153  1  0.50000000  0.36235900  0.36481291  1
  H  H154  1  0.50000000  0.36235275  0.13516991  1
  H  H155  1  0.50000000  0.35948964  0.45050792  1
  H  H156  1  0.50000000  0.64300925  0.11896792  1
  H  H157  1  0.50000000  0.64069622  0.45470381  1
  H  H158  1  0.50000000  0.28531482  0.48793761  1
  H  H159  1  0.50000000  0.34343046  0.49391188  1
  H  H160  1  0.50000000  0.64377669  0.21161024  1
  H  H161  1  0.50000000  0.68352737  0.48911781  1
