# generated using pymatgen
data_H16C75
_symmetry_space_group_name_H-M   'P 1'
_cell_length_a   10.00000000
_cell_length_b   41.10890000
_cell_length_c   25.93586182
_cell_angle_alpha   90.00000000
_cell_angle_beta   90.00000000
_cell_angle_gamma   90.00000000
_symmetry_Int_Tables_number   1
_chemical_formula_structural   H16C75
_chemical_formula_sum   'H32 C150'
_cell_volume   10661.94749979
_cell_formula_units_Z   2
loop_
 _symmetry_equiv_pos_site_id
 _symmetry_equiv_pos_as_xyz
  1  'x, y, z'
loop_
 _atom_site_type_symbol
 _atom_site_label
 _atom_site_symmetry_multiplicity
 _atom_site_fract_x
 _atom_site_fract_y
 _atom_site_fract_z
 _atom_site_occupancy
  C  C0  1  0.50000000  0.28944975  0.63925241  1
  C  C1  1  0.50000000  0.29013444  0.96995689  1
  C  C2  1  0.50000000  0.35000757  0.63993727  1
  C  C3  1  0.50000000  0.34997654  0.96862496  1
  C  C4  1  0.50000000  0.40853456  0.30775857  1
  C  C5  1  0.50000000  0.41022042  0.63970880  1
  C  C6  1  0.50000000  0.41036248  0.97117664  1
  C  C7  1  0.50000000  0.46755245  0.30581546  1
  C  C8  1  0.50000000  0.47061422  0.63917194  1
  C  C9  1  0.50000000  0.47022677  0.97156101  1
  C  C10  1  0.50000000  0.52730597  0.30572843  1
  C  C11  1  0.50000000  0.53109530  0.63863884  1
  C  C12  1  0.50000000  0.53058621  0.97234735  1
  C  C13  1  0.50000000  0.58695820  0.30418000  1
  C  C14  1  0.50000000  0.59108766  0.63917542  1
  C  C15  1  0.50000000  0.59117582  0.97346760  1
  C  C16  1  0.50000000  0.65126878  0.64026616  1
  C  C17  1  0.50000000  0.65256686  0.96582081  1
  C  C18  1  0.50000000  0.71237999  0.64045536  1
  C  C19  1  0.50000000  0.71171661  0.96812114  1
  C  C20  1  0.50000000  0.28961913  0.69516377  1
  C  C21  1  0.50000000  0.35010958  0.69509775  1
  C  C22  1  0.50000000  0.41070942  0.02484029  1
  C  C23  1  0.50000000  0.40899285  0.36107118  1
  C  C24  1  0.50000000  0.41030432  0.69469104  1
  C  C25  1  0.50000000  0.46963848  0.02691425  1
  C  C26  1  0.50000000  0.46803233  0.36156675  1
  C  C27  1  0.50000000  0.47062197  0.69471378  1
  C  C28  1  0.50000000  0.52958624  0.02769544  1
  C  C29  1  0.50000000  0.52777131  0.36101396  1
  C  C30  1  0.50000000  0.53096658  0.69435964  1
  C  C31  1  0.50000000  0.58985437  0.02921587  1
  C  C32  1  0.50000000  0.58698302  0.35884334  1
  C  C33  1  0.50000000  0.59100110  0.69446372  1
  C  C34  1  0.50000000  0.65110625  0.69528179  1
  C  C35  1  0.50000000  0.71190413  0.69589578  1
  C  C36  1  0.50000000  0.26038954  0.72340997  1
  C  C37  1  0.50000000  0.31970250  0.72242788  1
  C  C38  1  0.50000000  0.38011587  0.72229092  1
  C  C39  1  0.50000000  0.43935417  0.05409762  1
  C  C40  1  0.50000000  0.43841252  0.38982385  1
  C  C41  1  0.50000000  0.44060448  0.72232599  1
  C  C42  1  0.50000000  0.49927945  0.05530985  1
  C  C43  1  0.50000000  0.49826003  0.38940234  1
  C  C44  1  0.50000000  0.50083455  0.72233541  1
  C  C45  1  0.50000000  0.55921125  0.05607967  1
  C  C46  1  0.50000000  0.55796604  0.38832450  1
  C  C47  1  0.50000000  0.56085466  0.72221338  1
  C  C48  1  0.50000000  0.61755512  0.06226789  1
  C  C49  1  0.50000000  0.61652148  0.38544943  1
  C  C50  1  0.50000000  0.62108850  0.72229169  1
  C  C51  1  0.50000000  0.68158434  0.72252984  1
  C  C52  1  0.50000000  0.74124460  0.72353844  1
  C  C53  1  0.50000000  0.26038801  0.77661498  1
  C  C54  1  0.50000000  0.31970304  0.77759510  1
  C  C55  1  0.50000000  0.38011759  0.77772430  1
  C  C56  1  0.50000000  0.43842259  0.11015963  1
  C  C57  1  0.50000000  0.43934494  0.44589598  1
  C  C58  1  0.50000000  0.44060569  0.77767890  1
  C  C59  1  0.50000000  0.49826807  0.11058912  1
  C  C60  1  0.50000000  0.49927301  0.44467921  1
  C  C61  1  0.50000000  0.50083566  0.77766132  1
  C  C62  1  0.50000000  0.55796799  0.11167816  1
  C  C63  1  0.50000000  0.55921295  0.44392891  1
  C  C64  1  0.50000000  0.56085600  0.77776442  1
  C  C65  1  0.50000000  0.61652207  0.11454773  1
  C  C66  1  0.50000000  0.61755806  0.43772984  1
  C  C67  1  0.50000000  0.62108884  0.77768415  1
  C  C68  1  0.50000000  0.68158592  0.77745704  1
  C  C69  1  0.50000000  0.74124661  0.77644108  1
  C  C70  1  0.50000000  0.28961949  0.80486051  1
  C  C71  1  0.50000000  0.35011179  0.80492253  1
  C  C72  1  0.50000000  0.40899688  0.13890004  1
  C  C73  1  0.50000000  0.41069705  0.47515794  1
  C  C74  1  0.50000000  0.41030685  0.80532068  1
  C  C75  1  0.50000000  0.46803935  0.13841812  1
  C  C76  1  0.50000000  0.46963220  0.47307717  1
  C  C77  1  0.50000000  0.47062497  0.80528783  1
  C  C78  1  0.50000000  0.52777504  0.13897844  1
  C  C79  1  0.50000000  0.52958015  0.47229808  1
  C  C80  1  0.50000000  0.53097051  0.80562448  1
  C  C81  1  0.50000000  0.58698431  0.14115871  1
  C  C82  1  0.50000000  0.58985986  0.47079826  1
  C  C83  1  0.50000000  0.59100155  0.80551928  1
  C  C84  1  0.50000000  0.65110423  0.80471310  1
  C  C85  1  0.50000000  0.71190828  0.80408729  1
  C  C86  1  0.50000000  0.29011789  0.53007644  1
  C  C87  1  0.50000000  0.28945214  0.86077203  1
  C  C88  1  0.50000000  0.34996560  0.53139321  1
  C  C89  1  0.50000000  0.35001106  0.86008229  1
  C  C90  1  0.50000000  0.40853508  0.19220956  1
  C  C91  1  0.50000000  0.41035402  0.52881679  1
  C  C92  1  0.50000000  0.41022269  0.86029868  1
  C  C93  1  0.50000000  0.46755546  0.19417249  1
  C  C94  1  0.50000000  0.47021775  0.52843382  1
  C  C95  1  0.50000000  0.47061667  0.86082732  1
  C  C96  1  0.50000000  0.52730858  0.19426139  1
  C  C97  1  0.50000000  0.53057729  0.52764515  1
  C  C98  1  0.50000000  0.53109776  0.86134672  1
  C  C99  1  0.50000000  0.58696098  0.19582285  1
  C  C100  1  0.50000000  0.59116937  0.52654275  1
  C  C101  1  0.50000000  0.59109159  0.86081749  1
  C  C102  1  0.50000000  0.65254965  0.53418891  1
  C  C103  1  0.50000000  0.65126227  0.85973962  1
  C  C104  1  0.50000000  0.71170928  0.53186037  1
  C  C105  1  0.50000000  0.71238531  0.85952683  1
  C  C106  1  0.50000000  0.26075330  0.55649058  1
  C  C107  1  0.50000000  0.26045558  0.88956470  1
  C  C108  1  0.50000000  0.31984535  0.55750867  1
  C  C109  1  0.50000000  0.31977011  0.88739129  1
  C  C110  1  0.50000000  0.37959201  0.55694558  1
  C  C111  1  0.50000000  0.38003100  0.88757714  1
  C  C112  1  0.50000000  0.43754075  0.22191956  1
  C  C113  1  0.50000000  0.44042776  0.55664208  1
  C  C114  1  0.50000000  0.44054685  0.88811482  1
  C  C115  1  0.50000000  0.49743748  0.22233088  1
  C  C116  1  0.50000000  0.50060716  0.55595702  1
  C  C117  1  0.50000000  0.50074798  0.88887151  1
  C  C118  1  0.50000000  0.55697305  0.22254064  1
  C  C119  1  0.50000000  0.56118070  0.55477302  1
  C  C120  1  0.50000000  0.56100119  0.88925292  1
  C  C121  1  0.50000000  0.61659395  0.22370504  1
  C  C122  1  0.50000000  0.62173687  0.55614030  1
  C  C123  1  0.50000000  0.62126282  0.88796950  1
  C  C124  1  0.50000000  0.68228079  0.56018870  1
  C  C125  1  0.50000000  0.68204588  0.88548013  1
  C  C126  1  0.50000000  0.74118067  0.55771723  1
  C  C127  1  0.50000000  0.74139514  0.88832636  1
  C  C128  1  0.50000000  0.26044884  0.61047302  1
  C  C129  1  0.50000000  0.26076881  0.94354747  1
  C  C130  1  0.50000000  0.31976537  0.61262838  1
  C  C131  1  0.50000000  0.31985676  0.94251289  1
  C  C132  1  0.50000000  0.38002648  0.61243640  1
  C  C133  1  0.50000000  0.37959783  0.94306311  1
  C  C134  1  0.50000000  0.43754191  0.27805075  1
  C  C135  1  0.50000000  0.44054271  0.61188340  1
  C  C136  1  0.50000000  0.44043705  0.94335299  1
  C  C137  1  0.50000000  0.49743287  0.27766415  1
  C  C138  1  0.50000000  0.50074456  0.61112230  1
  C  C139  1  0.50000000  0.50061621  0.94403740  1
  C  C140  1  0.50000000  0.55697232  0.27745657  1
  C  C141  1  0.50000000  0.56099629  0.61073622  1
  C  C142  1  0.50000000  0.56118935  0.94522079  1
  C  C143  1  0.50000000  0.61658964  0.27629856  1
  C  C144  1  0.50000000  0.62126206  0.61204558  1
  C  C145  1  0.50000000  0.62175317  0.94387059  1
  C  C146  1  0.50000000  0.68204486  0.61450274  1
  C  C147  1  0.50000000  0.68229045  0.93979571  1
  C  C148  1  0.50000000  0.74139037  0.61166151  1
  C  C149  1  0.50000000  0.74118660  0.94227115  1
  H  H150  1  0.50000000  0.23700666  0.70333433  1
  H  H151  1  0.50000000  0.76443125  0.70305961  1
  H  H152  1  0.50000000  0.23699991  0.79667482  1
  H  H153  1  0.50000000  0.76443191  0.79692350  1
  H  H154  1  0.50000000  0.23768646  0.53528843  1
  H  H155  1  0.50000000  0.23693715  0.86986891  1
  H  H156  1  0.50000000  0.76415622  0.53631404  1
  H  H157  1  0.50000000  0.76489775  0.86869954  1
  H  H158  1  0.50000000  0.23693783  0.63019233  1
  H  H159  1  0.50000000  0.23770168  0.96474670  1
  H  H160  1  0.50000000  0.76488891  0.63130246  1
  H  H161  1  0.50000000  0.76416305  0.96367193  1
  H  H162  1  0.50000000  0.29072957  0.01219960  1
  H  H163  1  0.50000000  0.34883647  0.01072566  1
  H  H164  1  0.50000000  0.38490280  0.28837414  1
  H  H165  1  0.50000000  0.65697888  0.00620486  1
  H  H166  1  0.50000000  0.71077189  0.01037722  1
  H  H167  1  0.50000000  0.38757238  0.04527730  1
  H  H168  1  0.50000000  0.38561212  0.38114750  1
  H  H169  1  0.50000000  0.64214980  0.04934827  1
  H  H170  1  0.50000000  0.63965533  0.36493248  1
  H  H171  1  0.50000000  0.63965847  0.13505610  1
  H  H172  1  0.50000000  0.64216035  0.45062166  1
  H  H173  1  0.50000000  0.38561450  0.11881775  1
  H  H174  1  0.50000000  0.38755884  0.45472505  1
  H  H175  1  0.50000000  0.29070762  0.48783499  1
  H  H176  1  0.50000000  0.34882792  0.48929234  1
  H  H177  1  0.50000000  0.38490675  0.21159553  1
  H  H178  1  0.50000000  0.65693334  0.49381996  1
  H  H179  1  0.50000000  0.71078060  0.48960240  1
  H  H180  1  0.50000000  0.63988276  0.20363714  1
  H  H181  1  0.50000000  0.63987172  0.29638290  1
