# generated using pymatgen
data_H16C75
_symmetry_space_group_name_H-M   'P 1'
_cell_length_a   10.00000000
_cell_length_b   41.10890000
_cell_length_c   25.94064795
_cell_angle_alpha   90.00000000
_cell_angle_beta   90.00000000
_cell_angle_gamma   90.00000000
_symmetry_Int_Tables_number   1
_chemical_formula_structural   H16C75
_chemical_formula_sum   'H32 C150'
_cell_volume   10663.91502347
_cell_formula_units_Z   2
loop_
 _symmetry_equiv_pos_site_id
 _symmetry_equiv_pos_as_xyz
  1  'x, y, z'
loop_
 _atom_site_type_symbol
 _atom_site_label
 _atom_site_symmetry_multiplicity
 _atom_site_fract_x
 _atom_site_fract_y
 _atom_site_fract_z
 _atom_site_occupancy
  C  C0  1  0.50000000  0.28764423  0.63851754  1
  C  C1  1  0.50000000  0.28887312  0.97118149  1
  C  C2  1  0.50000000  0.34799368  0.64004136  1
  C  C3  1  0.50000000  0.34880900  0.96923380  1
  C  C4  1  0.50000000  0.40799557  0.64136376  1
  C  C5  1  0.50000000  0.40862910  0.96746421  1
  C  C6  1  0.50000000  0.46871916  0.64031606  1
  C  C7  1  0.50000000  0.46753938  0.96574229  1
  C  C8  1  0.50000000  0.53360925  0.30417650  1
  C  C9  1  0.50000000  0.52885393  0.63895581  1
  C  C10  1  0.50000000  0.52902964  0.97360489  1
  C  C11  1  0.50000000  0.59333458  0.30571768  1
  C  C12  1  0.50000000  0.58889398  0.63854550  1
  C  C13  1  0.50000000  0.58975863  0.97244335  1
  C  C14  1  0.50000000  0.65311384  0.30587879  1
  C  C15  1  0.50000000  0.64912225  0.63945695  1
  C  C16  1  0.50000000  0.65001128  0.97149108  1
  C  C17  1  0.50000000  0.71208544  0.30769461  1
  C  C18  1  0.50000000  0.70946528  0.63952463  1
  C  C19  1  0.50000000  0.70989616  0.97043581  1
  C  C20  1  0.50000000  0.28758409  0.69474842  1
  C  C21  1  0.50000000  0.34789304  0.69520069  1
  C  C22  1  0.50000000  0.40812174  0.69595325  1
  C  C23  1  0.50000000  0.46877580  0.69532470  1
  C  C24  1  0.50000000  0.53066753  0.02933606  1
  C  C25  1  0.50000000  0.53354730  0.35884421  1
  C  C26  1  0.50000000  0.52892380  0.69448517  1
  C  C27  1  0.50000000  0.59100884  0.02781474  1
  C  C28  1  0.50000000  0.59287351  0.36109749  1
  C  C29  1  0.50000000  0.58891891  0.69429324  1
  C  C30  1  0.50000000  0.65106063  0.02674453  1
  C  C31  1  0.50000000  0.65266856  0.36163082  1
  C  C32  1  0.50000000  0.64896261  0.69456132  1
  C  C33  1  0.50000000  0.71022877  0.02455126  1
  C  C34  1  0.50000000  0.71165608  0.36110017  1
  C  C35  1  0.50000000  0.70916736  0.69480008  1
  C  C36  1  0.50000000  0.25850923  0.72330074  1
  C  C37  1  0.50000000  0.31759965  0.72240036  1
  C  C38  1  0.50000000  0.37777571  0.72255226  1
  C  C39  1  0.50000000  0.43852757  0.72252774  1
  C  C40  1  0.50000000  0.50301297  0.06227046  1
  C  C41  1  0.50000000  0.50398364  0.38542363  1
  C  C42  1  0.50000000  0.49897618  0.72239206  1
  C  C43  1  0.50000000  0.56137782  0.05619098  1
  C  C44  1  0.50000000  0.56260835  0.38829526  1
  C  C45  1  0.50000000  0.55890835  0.72227111  1
  C  C46  1  0.50000000  0.62140214  0.05523021  1
  C  C47  1  0.50000000  0.62236828  0.38940362  1
  C  C48  1  0.50000000  0.61878402  0.72224285  1
  C  C49  1  0.50000000  0.68166067  0.05382514  1
  C  C50  1  0.50000000  0.68232464  0.38980081  1
  C  C51  1  0.50000000  0.67908437  0.72226038  1
  C  C52  1  0.50000000  0.73861900  0.72357818  1
  C  C53  1  0.50000000  0.25850895  0.77673533  1
  C  C54  1  0.50000000  0.31760040  0.77764202  1
  C  C55  1  0.50000000  0.37777636  0.77745849  1
  C  C56  1  0.50000000  0.43853172  0.77747951  1
  C  C57  1  0.50000000  0.50400017  0.11458059  1
  C  C58  1  0.50000000  0.50298563  0.43773604  1
  C  C59  1  0.50000000  0.49897868  0.77761958  1
  C  C60  1  0.50000000  0.56262983  0.11173415  1
  C  C61  1  0.50000000  0.56135576  0.44382516  1
  C  C62  1  0.50000000  0.55891559  0.77772096  1
  C  C63  1  0.50000000  0.62238257  0.11058224  1
  C  C64  1  0.50000000  0.62138428  0.44475487  1
  C  C65  1  0.50000000  0.61879078  0.77772715  1
  C  C66  1  0.50000000  0.68234375  0.11016370  1
  C  C67  1  0.50000000  0.68164958  0.44614248  1
  C  C68  1  0.50000000  0.67909289  0.77769474  1
  C  C69  1  0.50000000  0.73863570  0.77635759  1
  C  C70  1  0.50000000  0.28758285  0.80529388  1
  C  C71  1  0.50000000  0.34790229  0.80482220  1
  C  C72  1  0.50000000  0.40812524  0.80405401  1
  C  C73  1  0.50000000  0.46877555  0.80468978  1
  C  C74  1  0.50000000  0.53355993  0.14117841  1
  C  C75  1  0.50000000  0.53064484  0.47066811  1
  C  C76  1  0.50000000  0.52893436  0.80551278  1
  C  C77  1  0.50000000  0.59289688  0.13893463  1
  C  C78  1  0.50000000  0.59099202  0.47219138  1
  C  C79  1  0.50000000  0.58892935  0.80568426  1
  C  C80  1  0.50000000  0.65269060  0.13831657  1
  C  C81  1  0.50000000  0.65104698  0.47322349  1
  C  C82  1  0.50000000  0.64896438  0.80541706  1
  C  C83  1  0.50000000  0.71168034  0.13885254  1
  C  C84  1  0.50000000  0.71022034  0.47540504  1
  C  C85  1  0.50000000  0.70918977  0.80516735  1
  C  C86  1  0.50000000  0.28884467  0.52887569  1
  C  C87  1  0.50000000  0.28765056  0.86152750  1
  C  C88  1  0.50000000  0.34878520  0.53077778  1
  C  C89  1  0.50000000  0.34800147  0.85998098  1
  C  C90  1  0.50000000  0.40861188  0.53255809  1
  C  C91  1  0.50000000  0.40800345  0.85864136  1
  C  C92  1  0.50000000  0.46753162  0.53426172  1
  C  C93  1  0.50000000  0.46872932  0.85969883  1
  C  C94  1  0.50000000  0.53362134  0.19586098  1
  C  C95  1  0.50000000  0.52901561  0.52640560  1
  C  C96  1  0.50000000  0.52886002  0.86104774  1
  C  C97  1  0.50000000  0.59335567  0.19432992  1
  C  C98  1  0.50000000  0.58974220  0.52755621  1
  C  C99  1  0.50000000  0.58890388  0.86143659  1
  C  C100  1  0.50000000  0.65312804  0.19408735  1
  C  C101  1  0.50000000  0.64998684  0.52846857  1
  C  C102  1  0.50000000  0.64912680  0.86049272  1
  C  C103  1  0.50000000  0.71210533  0.19225666  1
  C  C104  1  0.50000000  0.70987256  0.52952344  1
  C  C105  1  0.50000000  0.70946954  0.86044420  1
  C  C106  1  0.50000000  0.25949065  0.55514698  1
  C  C107  1  0.50000000  0.25887645  0.89080183  1
  C  C108  1  0.50000000  0.31865886  0.55648695  1
  C  C109  1  0.50000000  0.31808329  0.88802272  1
  C  C110  1  0.50000000  0.37832535  0.55783852  1
  C  C111  1  0.50000000  0.37810596  0.88654307  1
  C  C112  1  0.50000000  0.43773830  0.56039259  1
  C  C113  1  0.50000000  0.43814597  0.88502268  1
  C  C114  1  0.50000000  0.50398714  0.22371836  1
  C  C115  1  0.50000000  0.49842972  0.55598486  1
  C  C116  1  0.50000000  0.49891382  0.88800672  1
  C  C117  1  0.50000000  0.56365725  0.22256927  1
  C  C118  1  0.50000000  0.55900874  0.55471559  1
  C  C119  1  0.50000000  0.55901137  0.88945290  1
  C  C120  1  0.50000000  0.62321900  0.22235108  1
  C  C121  1  0.50000000  0.61953117  0.55588543  1
  C  C122  1  0.50000000  0.61921027  0.88882260  1
  C  C123  1  0.50000000  0.68313074  0.22183911  1
  C  C124  1  0.50000000  0.67960954  0.55689501  1
  C  C125  1  0.50000000  0.67942734  0.88788899  1
  C  C126  1  0.50000000  0.73947469  0.55817245  1
  C  C127  1  0.50000000  0.73920153  0.88897600  1
  C  C128  1  0.50000000  0.25885798  0.60927549  1
  C  C129  1  0.50000000  0.25951594  0.94492796  1
  C  C130  1  0.50000000  0.31807286  0.61200863  1
  C  C131  1  0.50000000  0.31867643  0.94354395  1
  C  C132  1  0.50000000  0.37809225  0.61346991  1
  C  C133  1  0.50000000  0.37834302  0.94217217  1
  C  C134  1  0.50000000  0.43814171  0.61498580  1
  C  C135  1  0.50000000  0.43775871  0.93961135  1
  C  C136  1  0.50000000  0.50398865  0.27631373  1
  C  C137  1  0.50000000  0.49890215  0.61199945  1
  C  C138  1  0.50000000  0.49844539  0.94401221  1
  C  C139  1  0.50000000  0.56364554  0.27746431  1
  C  C140  1  0.50000000  0.55899719  0.61053581  1
  C  C141  1  0.50000000  0.55901661  0.94528670  1
  C  C142  1  0.50000000  0.62320245  0.27774238  1
  C  C143  1  0.50000000  0.61919738  0.61114642  1
  C  C144  1  0.50000000  0.61954477  0.94409299  1
  C  C145  1  0.50000000  0.68311758  0.27811734  1
  C  C146  1  0.50000000  0.67942772  0.61207171  1
  C  C147  1  0.50000000  0.67963328  0.94306682  1
  C  C148  1  0.50000000  0.73919452  0.61098548  1
  C  C149  1  0.50000000  0.73949027  0.94177990  1
  H  H150  1  0.50000000  0.23509866  0.70331360  1
  H  H151  1  0.50000000  0.76198751  0.70353240  1
  H  H152  1  0.50000000  0.23509517  0.79671530  1
  H  H153  1  0.50000000  0.76200536  0.79638440  1
  H  H154  1  0.50000000  0.23645771  0.53385002  1
  H  H155  1  0.50000000  0.23520350  0.87162604  1
  H  H156  1  0.50000000  0.76264203  0.53716406  1
  H  H157  1  0.50000000  0.76247435  0.86862081  1
  H  H158  1  0.50000000  0.23519319  0.62849292  1
  H  H159  1  0.50000000  0.23648878  0.96623844  1
  H  H160  1  0.50000000  0.76246445  0.63135257  1
  H  H161  1  0.50000000  0.76264632  0.96280873  1
  H  H162  1  0.50000000  0.28966890  0.01343606  1
  H  H163  1  0.50000000  0.34916311  0.01147595  1
  H  H164  1  0.50000000  0.40931900  0.00976186  1
  H  H165  1  0.50000000  0.46299658  0.00613077  1
  H  H166  1  0.50000000  0.73569309  0.28825413  1
  H  H167  1  0.50000000  0.73403861  0.04342394  1
  H  H168  1  0.50000000  0.73502130  0.38121993  1
  H  H169  1  0.50000000  0.47856559  0.04875802  1
  H  H170  1  0.50000000  0.48082404  0.36495521  1
  H  H171  1  0.50000000  0.48083253  0.13503949  1
  H  H172  1  0.50000000  0.47852945  0.45121741  1
  H  H173  1  0.50000000  0.73503787  0.11870443  1
  H  H174  1  0.50000000  0.73403196  0.45653364  1
  H  H175  1  0.50000000  0.28961001  0.48661751  1
  H  H176  1  0.50000000  0.34912314  0.48853437  1
  H  H177  1  0.50000000  0.40930348  0.49025864  1
  H  H178  1  0.50000000  0.46297856  0.49386192  1
  H  H179  1  0.50000000  0.73571289  0.21169528  1
  H  H180  1  0.50000000  0.48066475  0.20372918  1
  H  H181  1  0.50000000  0.48064631  0.29630057  1
