# generated using pymatgen
data_H16C75
_symmetry_space_group_name_H-M   'P 1'
_cell_length_a   10.00000000
_cell_length_b   41.10890000
_cell_length_c   25.80017596
_cell_angle_alpha   90.00000000
_cell_angle_beta   90.00000000
_cell_angle_gamma   90.00000000
_symmetry_Int_Tables_number   1
_chemical_formula_structural   H16C75
_chemical_formula_sum   'H32 C150'
_cell_volume   10606.16853362
_cell_formula_units_Z   2
loop_
 _symmetry_equiv_pos_site_id
 _symmetry_equiv_pos_as_xyz
  1  'x, y, z'
loop_
 _atom_site_type_symbol
 _atom_site_label
 _atom_site_symmetry_multiplicity
 _atom_site_fract_x
 _atom_site_fract_y
 _atom_site_fract_z
 _atom_site_occupancy
  C  C0  1  0.50000000  0.28983620  0.30540588  1
  C  C1  1  0.50000000  0.28977799  0.63881808  1
  C  C2  1  0.50000000  0.28971453  0.97203536  1
  C  C3  1  0.50000000  0.34998064  0.30569043  1
  C  C4  1  0.50000000  0.34995396  0.63911932  1
  C  C5  1  0.50000000  0.34986019  0.97220799  1
  C  C6  1  0.50000000  0.41011951  0.30561899  1
  C  C7  1  0.50000000  0.41011518  0.63892107  1
  C  C8  1  0.50000000  0.40991367  0.97196833  1
  C  C9  1  0.50000000  0.46949093  0.30693350  1
  C  C10  1  0.50000000  0.47045313  0.63902102  1
  C  C11  1  0.50000000  0.46989519  0.97230485  1
  C  C12  1  0.50000000  0.53052922  0.63939444  1
  C  C13  1  0.50000000  0.53038930  0.96975168  1
  C  C14  1  0.50000000  0.59063269  0.63960679  1
  C  C15  1  0.50000000  0.59009195  0.97040823  1
  C  C16  1  0.50000000  0.65061146  0.63899202  1
  C  C17  1  0.50000000  0.64991761  0.97117882  1
  C  C18  1  0.50000000  0.71098579  0.63766467  1
  C  C19  1  0.50000000  0.70988244  0.97267578  1
  C  C20  1  0.50000000  0.28967257  0.02785629  1
  C  C21  1  0.50000000  0.28978148  0.36122741  1
  C  C22  1  0.50000000  0.28986014  0.69460463  1
  C  C23  1  0.50000000  0.34980532  0.02748616  1
  C  C24  1  0.50000000  0.34994530  0.36109240  1
  C  C25  1  0.50000000  0.35003649  0.69431565  1
  C  C26  1  0.50000000  0.40976031  0.02746241  1
  C  C27  1  0.50000000  0.41007929  0.36129830  1
  C  C28  1  0.50000000  0.41013675  0.69453539  1
  C  C29  1  0.50000000  0.46892100  0.02614625  1
  C  C30  1  0.50000000  0.46942889  0.36025898  1
  C  C31  1  0.50000000  0.47038353  0.69455349  1
  C  C32  1  0.50000000  0.53053293  0.69483999  1
  C  C33  1  0.50000000  0.59067676  0.69491419  1
  C  C34  1  0.50000000  0.65071336  0.69462448  1
  C  C35  1  0.50000000  0.71099821  0.69428139  1
  C  C36  1  0.50000000  0.26028114  0.05669803  1
  C  C37  1  0.50000000  0.26036324  0.38997212  1
  C  C38  1  0.50000000  0.26039930  0.72341817  1
  C  C39  1  0.50000000  0.31969193  0.05541733  1
  C  C40  1  0.50000000  0.31977684  0.38892793  1
  C  C41  1  0.50000000  0.31985542  0.72217408  1
  C  C42  1  0.50000000  0.37980416  0.05544716  1
  C  C43  1  0.50000000  0.37991711  0.38910741  1
  C  C44  1  0.50000000  0.38020059  0.72218945  1
  C  C45  1  0.50000000  0.43987930  0.05490656  1
  C  C46  1  0.50000000  0.44005632  0.38909473  1
  C  C47  1  0.50000000  0.44029937  0.72231171  1
  C  C48  1  0.50000000  0.50041117  0.72228339  1
  C  C49  1  0.50000000  0.56059961  0.72228407  1
  C  C50  1  0.50000000  0.62087226  0.72221557  1
  C  C51  1  0.50000000  0.68099210  0.72214901  1
  C  C52  1  0.50000000  0.74003943  0.72314387  1
  C  C53  1  0.50000000  0.26033048  0.10998563  1
  C  C54  1  0.50000000  0.26029564  0.44320841  1
  C  C55  1  0.50000000  0.26039495  0.77661023  1
  C  C56  1  0.50000000  0.31977076  0.11103871  1
  C  C57  1  0.50000000  0.31969511  0.44454741  1
  C  C58  1  0.50000000  0.31985065  0.77781869  1
  C  C59  1  0.50000000  0.37991662  0.11087689  1
  C  C60  1  0.50000000  0.37980769  0.44453447  1
  C  C61  1  0.50000000  0.38019572  0.77779580  1
  C  C62  1  0.50000000  0.44006304  0.11089514  1
  C  C63  1  0.50000000  0.43987918  0.44508402  1
  C  C64  1  0.50000000  0.44029544  0.77767680  1
  C  C65  1  0.50000000  0.50041049  0.77771482  1
  C  C66  1  0.50000000  0.56060147  0.77771839  1
  C  C67  1  0.50000000  0.62087275  0.77778825  1
  C  C68  1  0.50000000  0.68099306  0.77786093  1
  C  C69  1  0.50000000  0.74004068  0.77690116  1
  C  C70  1  0.50000000  0.28977562  0.13870519  1
  C  C71  1  0.50000000  0.28966309  0.47212142  1
  C  C72  1  0.50000000  0.28985432  0.80541109  1
  C  C73  1  0.50000000  0.34994034  0.13887596  1
  C  C74  1  0.50000000  0.34980573  0.47248845  1
  C  C75  1  0.50000000  0.35003158  0.80566173  1
  C  C76  1  0.50000000  0.41008003  0.13868641  1
  C  C77  1  0.50000000  0.40976070  0.47252109  1
  C  C78  1  0.50000000  0.41013001  0.80544964  1
  C  C79  1  0.50000000  0.46942766  0.13976470  1
  C  C80  1  0.50000000  0.46893676  0.47381047  1
  C  C81  1  0.50000000  0.47037995  0.80543707  1
  C  C82  1  0.50000000  0.53053483  0.80516461  1
  C  C83  1  0.50000000  0.59067892  0.80509745  1
  C  C84  1  0.50000000  0.65071314  0.80538666  1
  C  C85  1  0.50000000  0.71099511  0.80574560  1
  C  C86  1  0.50000000  0.28983078  0.19453104  1
  C  C87  1  0.50000000  0.28971424  0.52794873  1
  C  C88  1  0.50000000  0.28976405  0.86119436  1
  C  C89  1  0.50000000  0.34997720  0.19427440  1
  C  C90  1  0.50000000  0.34985965  0.52777653  1
  C  C91  1  0.50000000  0.34994681  0.86085475  1
  C  C92  1  0.50000000  0.41011750  0.19437080  1
  C  C93  1  0.50000000  0.40991854  0.52801748  1
  C  C94  1  0.50000000  0.41010183  0.86106122  1
  C  C95  1  0.50000000  0.46947850  0.19308537  1
  C  C96  1  0.50000000  0.46991212  0.52766292  1
  C  C97  1  0.50000000  0.47044836  0.86096570  1
  C  C98  1  0.50000000  0.53039770  0.53023008  1
  C  C99  1  0.50000000  0.53053226  0.86060909  1
  C  C100  1  0.50000000  0.59009672  0.52964767  1
  C  C101  1  0.50000000  0.59063816  0.86041032  1
  C  C102  1  0.50000000  0.64991648  0.52891927  1
  C  C103  1  0.50000000  0.65061207  0.86102265  1
  C  C104  1  0.50000000  0.70988883  0.52734651  1
  C  C105  1  0.50000000  0.71099519  0.86236113  1
  C  C106  1  0.50000000  0.26044235  0.22332450  1
  C  C107  1  0.50000000  0.26031169  0.55678293  1
  C  C108  1  0.50000000  0.26030670  0.88998442  1
  C  C109  1  0.50000000  0.31986629  0.22216692  1
  C  C110  1  0.50000000  0.31972667  0.55561321  1
  C  C111  1  0.50000000  0.31977475  0.88876232  1
  C  C112  1  0.50000000  0.38000042  0.22227413  1
  C  C113  1  0.50000000  0.37988460  0.55579218  1
  C  C114  1  0.50000000  0.38001235  0.88881927  1
  C  C115  1  0.50000000  0.44015157  0.22207044  1
  C  C116  1  0.50000000  0.43992449  0.55596204  1
  C  C117  1  0.50000000  0.44006910  0.88877869  1
  C  C118  1  0.50000000  0.50078240  0.55576920  1
  C  C119  1  0.50000000  0.50035265  0.88829469  1
  C  C120  1  0.50000000  0.56062566  0.55657906  1
  C  C121  1  0.50000000  0.56055618  0.88767747  1
  C  C122  1  0.50000000  0.62028852  0.55583656  1
  C  C123  1  0.50000000  0.62057013  0.88818285  1
  C  C124  1  0.50000000  0.68001999  0.55498362  1
  C  C125  1  0.50000000  0.68056742  0.88913693  1
  C  C126  1  0.50000000  0.73920942  0.55383199  1
  C  C127  1  0.50000000  0.73980061  0.89176690  1
  C  C128  1  0.50000000  0.26044698  0.27659244  1
  C  C129  1  0.50000000  0.26033845  0.61002157  1
  C  C130  1  0.50000000  0.26029747  0.94323071  1
  C  C131  1  0.50000000  0.31986669  0.27778649  1
  C  C132  1  0.50000000  0.31978158  0.61122195  1
  C  C133  1  0.50000000  0.31972653  0.94437082  1
  C  C134  1  0.50000000  0.38000441  0.27770531  1
  C  C135  1  0.50000000  0.38002222  0.61116396  1
  C  C136  1  0.50000000  0.37988392  0.94418796  1
  C  C137  1  0.50000000  0.44015714  0.27794322  1
  C  C138  1  0.50000000  0.44007974  0.61119731  1
  C  C139  1  0.50000000  0.43991129  0.94401171  1
  C  C140  1  0.50000000  0.50035595  0.61169277  1
  C  C141  1  0.50000000  0.50077363  0.94421374  1
  C  C142  1  0.50000000  0.56055101  0.61233629  1
  C  C143  1  0.50000000  0.56062831  0.94344158  1
  C  C144  1  0.50000000  0.62056617  0.61185989  1
  C  C145  1  0.50000000  0.62029141  0.94423762  1
  C  C146  1  0.50000000  0.68056651  0.61088516  1
  C  C147  1  0.50000000  0.68000996  0.94505509  1
  C  C148  1  0.50000000  0.73978782  0.60827398  1
  C  C149  1  0.50000000  0.73920246  0.94619761  1
  H  H150  1  0.50000000  0.23689415  0.03655061  1
  H  H151  1  0.50000000  0.23694804  0.36989538  1
  H  H152  1  0.50000000  0.23702288  0.70326321  1
  H  H153  1  0.50000000  0.76347079  0.70312081  1
  H  H154  1  0.50000000  0.23696645  0.13023961  1
  H  H155  1  0.50000000  0.23682819  0.46312994  1
  H  H156  1  0.50000000  0.23702076  0.79678703  1
  H  H157  1  0.50000000  0.76346367  0.79694933  1
  H  H158  1  0.50000000  0.23704574  0.20320331  1
  H  H159  1  0.50000000  0.23688667  0.53677296  1
  H  H160  1  0.50000000  0.23692335  0.86976875  1
  H  H161  1  0.50000000  0.76220721  0.53231841  1
  H  H162  1  0.50000000  0.76349451  0.87257561  1
  H  H163  1  0.50000000  0.23705013  0.29669897  1
  H  H164  1  0.50000000  0.23690753  0.63005527  1
  H  H165  1  0.50000000  0.23694005  0.96347527  1
  H  H166  1  0.50000000  0.76343273  0.62763293  1
  H  H167  1  0.50000000  0.76218744  0.96775705  1
  H  H168  1  0.50000000  0.49290048  0.28689001  1
  H  H169  1  0.50000000  0.53127924  0.01208502  1
  H  H170  1  0.50000000  0.58982848  0.01293208  1
  H  H171  1  0.50000000  0.64957888  0.01371524  1
  H  H172  1  0.50000000  0.70930821  0.01514626  1
  H  H173  1  0.50000000  0.49189238  0.04710980  1
  H  H174  1  0.50000000  0.49283120  0.38036500  1
  H  H175  1  0.50000000  0.49287759  0.11980419  1
  H  H176  1  0.50000000  0.49186635  0.45268977  1
  H  H177  1  0.50000000  0.49289781  0.21309515  1
  H  H178  1  0.50000000  0.53127902  0.48787638  1
  H  H179  1  0.50000000  0.58984113  0.48713568  1
  H  H180  1  0.50000000  0.64956865  0.48642341  1
  H  H181  1  0.50000000  0.70929640  0.48487940  1
