# generated using pymatgen
data_H16C75
_symmetry_space_group_name_H-M   'P 1'
_cell_length_a   10.00000000
_cell_length_b   41.10890000
_cell_length_c   25.91590719
_cell_angle_alpha   90.00000000
_cell_angle_beta   90.00000000
_cell_angle_gamma   90.00000000
_symmetry_Int_Tables_number   1
_chemical_formula_structural   H16C75
_chemical_formula_sum   'H32 C150'
_cell_volume   10653.74436909
_cell_formula_units_Z   2
loop_
 _symmetry_equiv_pos_site_id
 _symmetry_equiv_pos_as_xyz
  1  'x, y, z'
loop_
 _atom_site_type_symbol
 _atom_site_label
 _atom_site_symmetry_multiplicity
 _atom_site_fract_x
 _atom_site_fract_y
 _atom_site_fract_z
 _atom_site_occupancy
  C  C0  1  0.50000000  0.28906314  0.63845932  1
  C  C1  1  0.50000000  0.29026391  0.97130004  1
  C  C2  1  0.50000000  0.34951394  0.63996272  1
  C  C3  1  0.50000000  0.35025530  0.96937495  1
  C  C4  1  0.50000000  0.40982245  0.64005215  1
  C  C5  1  0.50000000  0.40986743  0.96863273  1
  C  C6  1  0.50000000  0.46914103  0.30757286  1
  C  C7  1  0.50000000  0.46998875  0.63949339  1
  C  C8  1  0.50000000  0.47031984  0.97147740  1
  C  C9  1  0.50000000  0.52822466  0.30578452  1
  C  C10  1  0.50000000  0.53043372  0.63899165  1
  C  C11  1  0.50000000  0.53031587  0.97164132  1
  C  C12  1  0.50000000  0.58804321  0.30573018  1
  C  C13  1  0.50000000  0.59082471  0.63860493  1
  C  C14  1  0.50000000  0.59077876  0.97246817  1
  C  C15  1  0.50000000  0.64777310  0.30432464  1
  C  C16  1  0.50000000  0.65069568  0.63902710  1
  C  C17  1  0.50000000  0.65164468  0.97319252  1
  C  C18  1  0.50000000  0.71084381  0.64053730  1
  C  C19  1  0.50000000  0.71417016  0.96484924  1
  C  C20  1  0.50000000  0.28902065  0.69472812  1
  C  C21  1  0.50000000  0.34947026  0.69518657  1
  C  C22  1  0.50000000  0.40979803  0.69513877  1
  C  C23  1  0.50000000  0.47085865  0.02514704  1
  C  C24  1  0.50000000  0.46947680  0.36085565  1
  C  C25  1  0.50000000  0.47004094  0.69469967  1
  C  C26  1  0.50000000  0.52989588  0.02704683  1
  C  C27  1  0.50000000  0.52857007  0.36150355  1
  C  C28  1  0.50000000  0.53041602  0.69464292  1
  C  C29  1  0.50000000  0.58988300  0.02772387  1
  C  C30  1  0.50000000  0.58838341  0.36099322  1
  C  C31  1  0.50000000  0.59059101  0.69416680  1
  C  C32  1  0.50000000  0.65013126  0.02895834  1
  C  C33  1  0.50000000  0.64773877  0.35917554  1
  C  C34  1  0.50000000  0.65024019  0.69421960  1
  C  C35  1  0.50000000  0.71011825  0.69586016  1
  C  C36  1  0.50000000  0.25989224  0.72329433  1
  C  C37  1  0.50000000  0.31906731  0.72237327  1
  C  C38  1  0.50000000  0.37948965  0.72236147  1
  C  C39  1  0.50000000  0.43996905  0.72234714  1
  C  C40  1  0.50000000  0.49963822  0.05429573  1
  C  C41  1  0.50000000  0.49887578  0.38968874  1
  C  C42  1  0.50000000  0.50032263  0.72233874  1
  C  C43  1  0.50000000  0.55960588  0.05536420  1
  C  C44  1  0.50000000  0.55877625  0.38932457  1
  C  C45  1  0.50000000  0.56042775  0.72226437  1
  C  C46  1  0.50000000  0.61959638  0.05596181  1
  C  C47  1  0.50000000  0.61857002  0.38839400  1
  C  C48  1  0.50000000  0.62037091  0.72211616  1
  C  C49  1  0.50000000  0.67800519  0.06140824  1
  C  C50  1  0.50000000  0.67721702  0.38615454  1
  C  C51  1  0.50000000  0.68018800  0.72248070  1
  C  C52  1  0.50000000  0.73952737  0.72369673  1
  C  C53  1  0.50000000  0.25988658  0.77675703  1
  C  C54  1  0.50000000  0.31906479  0.77765563  1
  C  C55  1  0.50000000  0.37948683  0.77765664  1
  C  C56  1  0.50000000  0.43996086  0.77767048  1
  C  C57  1  0.50000000  0.49887769  0.11030567  1
  C  C58  1  0.50000000  0.49963088  0.44570219  1
  C  C59  1  0.50000000  0.50031756  0.77765697  1
  C  C60  1  0.50000000  0.55876963  0.11066058  1
  C  C61  1  0.50000000  0.55960741  0.44462280  1
  C  C62  1  0.50000000  0.56042899  0.77770628  1
  C  C63  1  0.50000000  0.61855583  0.11158410  1
  C  C64  1  0.50000000  0.61960608  0.44401772  1
  C  C65  1  0.50000000  0.62037069  0.77788093  1
  C  C66  1  0.50000000  0.67719932  0.11379205  1
  C  C67  1  0.50000000  0.67802677  0.43854506  1
  C  C68  1  0.50000000  0.68018278  0.77753041  1
  C  C69  1  0.50000000  0.73953093  0.77631171  1
  C  C70  1  0.50000000  0.28901946  0.80531684  1
  C  C71  1  0.50000000  0.34946828  0.80483815  1
  C  C72  1  0.50000000  0.40979151  0.80488244  1
  C  C73  1  0.50000000  0.46947160  0.13913994  1
  C  C74  1  0.50000000  0.47085590  0.47485630  1
  C  C75  1  0.50000000  0.47003605  0.80530010  1
  C  C76  1  0.50000000  0.52857099  0.13848575  1
  C  C77  1  0.50000000  0.52990190  0.47295175  1
  C  C78  1  0.50000000  0.53041861  0.80533488  1
  C  C79  1  0.50000000  0.58837119  0.13900402  1
  C  C80  1  0.50000000  0.58988703  0.47226091  1
  C  C81  1  0.50000000  0.59058310  0.80581626  1
  C  C82  1  0.50000000  0.64772600  0.14078337  1
  C  C83  1  0.50000000  0.65015197  0.47100756  1
  C  C84  1  0.50000000  0.65023424  0.80579469  1
  C  C85  1  0.50000000  0.71011524  0.80414015  1
  C  C86  1  0.50000000  0.29025583  0.52874209  1
  C  C87  1  0.50000000  0.28906522  0.86158781  1
  C  C88  1  0.50000000  0.35024482  0.53067099  1
  C  C89  1  0.50000000  0.34951508  0.86006452  1
  C  C90  1  0.50000000  0.40986144  0.53138417  1
  C  C91  1  0.50000000  0.40982115  0.85996563  1
  C  C92  1  0.50000000  0.46913319  0.19242695  1
  C  C93  1  0.50000000  0.47032177  0.52853256  1
  C  C94  1  0.50000000  0.46998522  0.86050355  1
  C  C95  1  0.50000000  0.52822373  0.19421406  1
  C  C96  1  0.50000000  0.53032520  0.52833518  1
  C  C97  1  0.50000000  0.53043784  0.86099621  1
  C  C98  1  0.50000000  0.58803679  0.19425896  1
  C  C99  1  0.50000000  0.59077667  0.52752040  1
  C  C100  1  0.50000000  0.59080834  0.86138013  1
  C  C101  1  0.50000000  0.64776474  0.19562762  1
  C  C102  1  0.50000000  0.65164615  0.52677051  1
  C  C103  1  0.50000000  0.65068099  0.86099564  1
  C  C104  1  0.50000000  0.71416248  0.53513950  1
  C  C105  1  0.50000000  0.71084186  0.85945958  1
  C  C106  1  0.50000000  0.26089099  0.55504431  1
  C  C107  1  0.50000000  0.26026552  0.89084441  1
  C  C108  1  0.50000000  0.32003861  0.55638207  1
  C  C109  1  0.50000000  0.31954643  0.88811088  1
  C  C110  1  0.50000000  0.37966587  0.55766770  1
  C  C111  1  0.50000000  0.37961878  0.88694221  1
  C  C112  1  0.50000000  0.43949497  0.55670996  1
  C  C113  1  0.50000000  0.43995304  0.88762985  1
  C  C114  1  0.50000000  0.49822011  0.22197649  1
  C  C115  1  0.50000000  0.50041897  0.55649891  1
  C  C116  1  0.50000000  0.50041100  0.88831319  1
  C  C117  1  0.50000000  0.55815298  0.22230962  1
  C  C118  1  0.50000000  0.56065365  0.55577990  1
  C  C119  1  0.50000000  0.56054172  0.88902825  1
  C  C120  1  0.50000000  0.61778603  0.22247264  1
  C  C121  1  0.50000000  0.62143989  0.55473083  1
  C  C122  1  0.50000000  0.62087106  0.88927692  1
  C  C123  1  0.50000000  0.67738194  0.22360745  1
  C  C124  1  0.50000000  0.68238927  0.55622955  1
  C  C125  1  0.50000000  0.68117182  0.88828793  1
  C  C126  1  0.50000000  0.74278151  0.56340663  1
  C  C127  1  0.50000000  0.74132870  0.88373422  1
  C  C128  1  0.50000000  0.26026481  0.60920123  1
  C  C129  1  0.50000000  0.26089869  0.94500004  1
  C  C130  1  0.50000000  0.31954216  0.61193323  1
  C  C131  1  0.50000000  0.32004706  0.94366687  1
  C  C132  1  0.50000000  0.37961729  0.61308357  1
  C  C133  1  0.50000000  0.37967073  0.94235977  1
  C  C134  1  0.50000000  0.43995381  0.61238165  1
  C  C135  1  0.50000000  0.43949922  0.94330076  1
  C  C136  1  0.50000000  0.49822593  0.27802164  1
  C  C137  1  0.50000000  0.50040966  0.61166770  1
  C  C138  1  0.50000000  0.50041218  0.94349256  1
  C  C139  1  0.50000000  0.55815467  0.27769725  1
  C  C140  1  0.50000000  0.56054014  0.61096915  1
  C  C141  1  0.50000000  0.56065899  0.94420604  1
  C  C142  1  0.50000000  0.61779311  0.27750075  1
  C  C143  1  0.50000000  0.62088670  0.61070077  1
  C  C144  1  0.50000000  0.62144032  0.94521948  1
  C  C145  1  0.50000000  0.67738402  0.27633260  1
  C  C146  1  0.50000000  0.68117263  0.61171300  1
  C  C147  1  0.50000000  0.68239641  0.94376571  1
  C  C148  1  0.50000000  0.74132664  0.61624519  1
  C  C149  1  0.50000000  0.74278389  0.93657156  1
  H  H150  1  0.50000000  0.23646503  0.70327997  1
  H  H151  1  0.50000000  0.76299951  0.70421850  1
  H  H152  1  0.50000000  0.23644964  0.79675137  1
  H  H153  1  0.50000000  0.76301335  0.79575582  1
  H  H154  1  0.50000000  0.23787945  0.53367532  1
  H  H155  1  0.50000000  0.23656425  0.87166824  1
  H  H156  1  0.50000000  0.76617939  0.54316155  1
  H  H157  1  0.50000000  0.76385485  0.86174467  1
  H  H158  1  0.50000000  0.23656617  0.62838253  1
  H  H159  1  0.50000000  0.23789668  0.96638956  1
  H  H160  1  0.50000000  0.76385588  0.63822523  1
  H  H161  1  0.50000000  0.76617696  0.95682983  1
  H  H162  1  0.50000000  0.29091758  0.01360662  1
  H  H163  1  0.50000000  0.35067547  0.01165745  1
  H  H164  1  0.50000000  0.40870179  0.01076023  1
  H  H165  1  0.50000000  0.44555367  0.28807734  1
  H  H166  1  0.50000000  0.71937182  0.00522281  1
  H  H167  1  0.50000000  0.44774216  0.04571503  1
  H  H168  1  0.50000000  0.44605679  0.38082244  1
  H  H169  1  0.50000000  0.70229929  0.04707608  1
  H  H170  1  0.50000000  0.70043856  0.36588892  1
  H  H171  1  0.50000000  0.70042900  0.13404369  1
  H  H172  1  0.50000000  0.70232852  0.45285399  1
  H  H173  1  0.50000000  0.44604029  0.11919563  1
  H  H174  1  0.50000000  0.44774969  0.45428927  1
  H  H175  1  0.50000000  0.29091154  0.48643362  1
  H  H176  1  0.50000000  0.35066784  0.48839235  1
  H  H177  1  0.50000000  0.40870202  0.48925422  1
  H  H178  1  0.50000000  0.44554385  0.21194007  1
  H  H179  1  0.50000000  0.71934367  0.49476158  1
  H  H180  1  0.50000000  0.70066923  0.20346856  1
  H  H181  1  0.50000000  0.70066445  0.29649709  1
