# generated using pymatgen
data_H5C23
_symmetry_space_group_name_H-M   'P 1'
_cell_length_a   20.00000000
_cell_length_b   40.19450000
_cell_length_c   25.94084951
_cell_angle_alpha   90.00000000
_cell_angle_beta   90.00000000
_cell_angle_gamma   90.00000000
_symmetry_Int_Tables_number   1
_chemical_formula_structural   H5C23
_chemical_formula_sum   'H30 C138'
_cell_volume   20853.58951316
_cell_formula_units_Z   6
loop_
 _symmetry_equiv_pos_site_id
 _symmetry_equiv_pos_as_xyz
  1  'x, y, z'
loop_
 _atom_site_type_symbol
 _atom_site_label
 _atom_site_symmetry_multiplicity
 _atom_site_fract_x
 _atom_site_fract_y
 _atom_site_fract_z
 _atom_site_occupancy
  C  C0  1  0.50000000  0.28554740  0.61173623  1
  C  C1  1  0.50000000  0.28597853  0.77653562  1
  C  C2  1  0.50000000  0.28538230  0.94187628  1
  C  C3  1  0.50000000  0.31571042  0.63945076  1
  C  C4  1  0.50000000  0.31598888  0.80484067  1
  C  C5  1  0.50000000  0.31533573  0.96888388  1
  C  C6  1  0.50000000  0.28541425  0.55821516  1
  C  C7  1  0.50000000  0.28598831  0.72353785  1
  C  C8  1  0.50000000  0.28553622  0.88836909  1
  C  C9  1  0.50000000  0.34651416  0.61202289  1
  C  C10  1  0.50000000  0.34669435  0.77765394  1
  C  C11  1  0.50000000  0.34606370  0.94311766  1
  C  C12  1  0.50000000  0.37624861  0.13894889  1
  C  C13  1  0.50000000  0.37758650  0.63981622  1
  C  C14  1  0.50000000  0.37581491  0.30770303  1
  C  C15  1  0.50000000  0.37772673  0.80546146  1
  C  C16  1  0.50000000  0.37787015  0.47518948  1
  C  C17  1  0.50000000  0.37750202  0.97118368  1
  C  C18  1  0.50000000  0.31536426  0.53123723  1
  C  C19  1  0.50000000  0.31601929  0.69526016  1
  C  C20  1  0.50000000  0.31569564  0.86064237  1
  C  C21  1  0.50000000  0.34608121  0.55700873  1
  C  C22  1  0.50000000  0.34671510  0.72245368  1
  C  C23  1  0.50000000  0.34650348  0.88806853  1
  C  C24  1  0.50000000  0.40633724  0.11019891  1
  C  C25  1  0.50000000  0.40841320  0.61199734  1
  C  C26  1  0.50000000  0.40552264  0.27806257  1
  C  C27  1  0.50000000  0.40857951  0.77778972  1
  C  C28  1  0.50000000  0.40719760  0.44592209  1
  C  C29  1  0.50000000  0.40826827  0.94336545  1
  C  C30  1  0.50000000  0.43663800  0.13843040  1
  C  C31  1  0.50000000  0.43923036  0.63936261  1
  C  C32  1  0.50000000  0.43620929  0.30582055  1
  C  C33  1  0.50000000  0.43928311  0.80538210  1
  C  C34  1  0.50000000  0.43817568  0.47315648  1
  C  C35  1  0.50000000  0.43875180  0.97153480  1
  C  C36  1  0.50000000  0.37791927  0.02489009  1
  C  C37  1  0.50000000  0.37748128  0.52891075  1
  C  C38  1  0.50000000  0.37584527  0.19224567  1
  C  C39  1  0.50000000  0.37774300  0.69464703  1
  C  C40  1  0.50000000  0.37619485  0.36100527  1
  C  C41  1  0.50000000  0.37758009  0.86027471  1
  C  C42  1  0.50000000  0.40724537  0.05410162  1
  C  C43  1  0.50000000  0.40825911  0.55668568  1
  C  C44  1  0.50000000  0.40553044  0.22193030  1
  C  C45  1  0.50000000  0.40858964  0.72231024  1
  C  C46  1  0.50000000  0.40629362  0.38976992  1
  C  C47  1  0.50000000  0.40841667  0.88806628  1
  C  C48  1  0.50000000  0.46754796  0.11054265  1
  C  C49  1  0.50000000  0.47003991  0.61121249  1
  C  C50  1  0.50000000  0.46678880  0.27762507  1
  C  C51  1  0.50000000  0.47025410  0.77767249  1
  C  C52  1  0.50000000  0.46854158  0.44475612  1
  C  C53  1  0.50000000  0.46985607  0.94397738  1
  C  C54  1  0.50000000  0.49775583  0.13894518  1
  C  C55  1  0.50000000  0.50110379  0.63869677  1
  C  C56  1  0.50000000  0.49732778  0.30575755  1
  C  C57  1  0.50000000  0.50101651  0.80565501  1
  C  C58  1  0.50000000  0.49955150  0.47240043  1
  C  C59  1  0.50000000  0.50054463  0.97228379  1
  C  C60  1  0.50000000  0.43820912  0.02687233  1
  C  C61  1  0.50000000  0.43873315  0.52850239  1
  C  C62  1  0.50000000  0.43621294  0.19417617  1
  C  C63  1  0.50000000  0.43927999  0.69470879  1
  C  C64  1  0.50000000  0.43660718  0.36161045  1
  C  C65  1  0.50000000  0.43924638  0.86071732  1
  C  C66  1  0.50000000  0.46855868  0.05529073  1
  C  C67  1  0.50000000  0.46983523  0.55608367  1
  C  C68  1  0.50000000  0.46678575  0.22233085  1
  C  C69  1  0.50000000  0.47024690  0.72241660  1
  C  C70  1  0.50000000  0.46753305  0.38949164  1
  C  C71  1  0.50000000  0.47005738  0.88885367  1
  C  C72  1  0.50000000  0.52862344  0.11164134  1
  C  C73  1  0.50000000  0.53170060  0.61078239  1
  C  C74  1  0.50000000  0.52766371  0.27746602  1
  C  C75  1  0.50000000  0.53160699  0.77777011  1
  C  C76  1  0.50000000  0.52987377  0.44399406  1
  C  C77  1  0.50000000  0.53189910  0.94517973  1
  C  C78  1  0.50000000  0.55829939  0.14117051  1
  C  C79  1  0.50000000  0.56252422  0.63922494  1
  C  C80  1  0.50000000  0.55832966  0.30420533  1
  C  C81  1  0.50000000  0.56244579  0.80556167  1
  C  C82  1  0.50000000  0.56124372  0.47089365  1
  C  C83  1  0.50000000  0.56261683  0.97345983  1
  C  C84  1  0.50000000  0.49956032  0.02765106  1
  C  C85  1  0.50000000  0.50052363  0.52777492  1
  C  C86  1  0.50000000  0.49734362  0.19424181  1
  C  C87  1  0.50000000  0.50100178  0.69441743  1
  C  C88  1  0.50000000  0.49774635  0.36107248  1
  C  C89  1  0.50000000  0.50111840  0.86137386  1
  C  C90  1  0.50000000  0.52988282  0.05602868  1
  C  C91  1  0.50000000  0.53187717  0.55487314  1
  C  C92  1  0.50000000  0.52766988  0.22254427  1
  C  C93  1  0.50000000  0.53160163  0.72228883  1
  C  C94  1  0.50000000  0.52863183  0.38836630  1
  C  C95  1  0.50000000  0.53171148  0.88927944  1
  C  C96  1  0.50000000  0.58850876  0.11453391  1
  C  C97  1  0.50000000  0.59336951  0.61215704  1
  C  C98  1  0.50000000  0.58864771  0.27622863  1
  C  C99  1  0.50000000  0.59320006  0.77773453  1
  C  C100  1  0.50000000  0.58956317  0.43773053  1
  C  C101  1  0.50000000  0.59385727  0.94382044  1
  C  C102  1  0.50000000  0.62407993  0.64034136  1
  C  C103  1  0.50000000  0.62392660  0.80474195  1
  C  C104  1  0.50000000  0.62537599  0.96577945  1
  C  C105  1  0.50000000  0.56124818  0.02913699  1
  C  C106  1  0.50000000  0.56260013  0.52660694  1
  C  C107  1  0.50000000  0.55832714  0.19577331  1
  C  C108  1  0.50000000  0.56244171  0.69449323  1
  C  C109  1  0.50000000  0.55831454  0.35882000  1
  C  C110  1  0.50000000  0.56252376  0.86080770  1
  C  C111  1  0.50000000  0.58956018  0.06228363  1
  C  C112  1  0.50000000  0.59383084  0.55631462  1
  C  C113  1  0.50000000  0.58866648  0.22366678  1
  C  C114  1  0.50000000  0.59319337  0.72234987  1
  C  C115  1  0.50000000  0.58852534  0.38547500  1
  C  C116  1  0.50000000  0.59338232  0.88791580  1
  C  C117  1  0.50000000  0.65556892  0.61456262  1
  C  C118  1  0.50000000  0.65509857  0.77748182  1
  C  C119  1  0.50000000  0.65585811  0.93981063  1
  C  C120  1  0.50000000  0.68660212  0.64053971  1
  C  C121  1  0.50000000  0.68612679  0.80406740  1
  C  C122  1  0.50000000  0.68597826  0.96801802  1
  C  C123  1  0.50000000  0.62531518  0.53428284  1
  C  C124  1  0.50000000  0.62391238  0.69532179  1
  C  C125  1  0.50000000  0.62410611  0.85973629  1
  C  C126  1  0.50000000  0.65576894  0.56024675  1
  C  C127  1  0.50000000  0.65509116  0.72257360  1
  C  C128  1  0.50000000  0.65562095  0.88548662  1
  C  C129  1  0.50000000  0.71630959  0.61178230  1
  C  C130  1  0.50000000  0.71616408  0.77644423  1
  C  C131  1  0.50000000  0.71611102  0.94208348  1
  C  C132  1  0.50000000  0.68588126  0.53200156  1
  C  C133  1  0.50000000  0.68611075  0.69595584  1
  C  C134  1  0.50000000  0.68663994  0.85947589  1
  C  C135  1  0.50000000  0.71603955  0.55787446  1
  C  C136  1  0.50000000  0.71615587  0.72356977  1
  C  C137  1  0.50000000  0.71637579  0.88818417  1
  H  H138  1  0.50000000  0.26169417  0.63190911  1
  H  H139  1  0.50000000  0.26204838  0.79650192  1
  H  H140  1  0.50000000  0.26176140  0.96300124  1
  H  H141  1  0.50000000  0.26181137  0.53707408  1
  H  H142  1  0.50000000  0.26206368  0.70352075  1
  H  H143  1  0.50000000  0.26166112  0.86825103  1
  H  H144  1  0.50000000  0.74035662  0.63143872  1
  H  H145  1  0.50000000  0.73989099  0.79690598  1
  H  H146  1  0.50000000  0.73959791  0.96348969  1
  H  H147  1  0.50000000  0.73951569  0.53642750  1
  H  H148  1  0.50000000  0.73988578  0.70312406  1
  H  H149  1  0.50000000  0.74046099  0.86860685  1
  H  H150  1  0.50000000  0.68503217  0.48975162  1
  H  H151  1  0.50000000  0.31428826  0.48918647  1
  H  H152  1  0.50000000  0.68519539  0.01026359  1
  H  H153  1  0.50000000  0.31427180  0.01093728  1
  H  H154  1  0.50000000  0.35228884  0.11896686  1
  H  H155  1  0.50000000  0.35165217  0.28833450  1
  H  H156  1  0.50000000  0.35420287  0.45476048  1
  H  H157  1  0.50000000  0.35426809  0.04533597  1
  H  H158  1  0.50000000  0.35165988  0.21155104  1
  H  H159  1  0.50000000  0.35223425  0.38099919  1
  H  H160  1  0.50000000  0.61220568  0.13494279  1
  H  H161  1  0.50000000  0.61247622  0.29624453  1
  H  H162  1  0.50000000  0.61476875  0.45042363  1
  H  H163  1  0.50000000  0.62969842  0.00620552  1
  H  H164  1  0.50000000  0.61475500  0.04957373  1
  H  H165  1  0.50000000  0.61252505  0.20369576  1
  H  H166  1  0.50000000  0.61225449  0.36513749  1
  H  H167  1  0.50000000  0.62961830  0.49386145  1
