# generated using pymatgen
data_H5C23
_symmetry_space_group_name_H-M   'P 1'
_cell_length_a   20.00000000
_cell_length_b   40.19450000
_cell_length_c   25.93962611
_cell_angle_alpha   90.00000000
_cell_angle_beta   90.00000000
_cell_angle_gamma   90.00000000
_symmetry_Int_Tables_number   1
_chemical_formula_structural   H5C23
_chemical_formula_sum   'H30 C138'
_cell_volume   20852.60602967
_cell_formula_units_Z   6
loop_
 _symmetry_equiv_pos_site_id
 _symmetry_equiv_pos_as_xyz
  1  'x, y, z'
loop_
 _atom_site_type_symbol
 _atom_site_label
 _atom_site_symmetry_multiplicity
 _atom_site_fract_x
 _atom_site_fract_y
 _atom_site_fract_z
 _atom_site_occupancy
  C  C0  1  0.50000000  0.28601693  0.61090712  1
  C  C1  1  0.50000000  0.28659899  0.77629819  1
  C  C2  1  0.50000000  0.28577384  0.94179132  1
  C  C3  1  0.50000000  0.31423211  0.13885899  1
  C  C4  1  0.50000000  0.31642662  0.63951481  1
  C  C5  1  0.50000000  0.31376746  0.30770040  1
  C  C6  1  0.50000000  0.31671819  0.80517550  1
  C  C7  1  0.50000000  0.31567605  0.47537963  1
  C  C8  1  0.50000000  0.31605749  0.97046653  1
  C  C9  1  0.50000000  0.28573562  0.55813193  1
  C  C10  1  0.50000000  0.28661523  0.72353925  1
  C  C11  1  0.50000000  0.28602421  0.88903573  1
  C  C12  1  0.50000000  0.34425157  0.11012664  1
  C  C13  1  0.50000000  0.34716848  0.61207987  1
  C  C14  1  0.50000000  0.34344758  0.27811142  1
  C  C15  1  0.50000000  0.34750707  0.77768756  1
  C  C16  1  0.50000000  0.34493694  0.44608459  1
  C  C17  1  0.50000000  0.34697814  0.94298955  1
  C  C18  1  0.50000000  0.37456646  0.13823863  1
  C  C19  1  0.50000000  0.37813743  0.63949570  1
  C  C20  1  0.50000000  0.37412267  0.30592501  1
  C  C21  1  0.50000000  0.37831080  0.80538475  1
  C  C22  1  0.50000000  0.37618682  0.47325240  1
  C  C23  1  0.50000000  0.37726146  0.97140837  1
  C  C24  1  0.50000000  0.31569848  0.02454729  1
  C  C25  1  0.50000000  0.31601539  0.52946029  1
  C  C26  1  0.50000000  0.31380963  0.19223713  1
  C  C27  1  0.50000000  0.31673380  0.69470469  1
  C  C28  1  0.50000000  0.31420621  0.36108566  1
  C  C29  1  0.50000000  0.31641882  0.86037983  1
  C  C30  1  0.50000000  0.34495271  0.05386274  1
  C  C31  1  0.50000000  0.34695576  0.55689877  1
  C  C32  1  0.50000000  0.34347093  0.22183748  1
  C  C33  1  0.50000000  0.34750973  0.72224394  1
  C  C34  1  0.50000000  0.34423538  0.38981910  1
  C  C35  1  0.50000000  0.34716483  0.88781079  1
  C  C36  1  0.50000000  0.40554211  0.11048470  1
  C  C37  1  0.50000000  0.40877233  0.61115233  1
  C  C38  1  0.50000000  0.40471959  0.27768235  1
  C  C39  1  0.50000000  0.40921619  0.77767605  1
  C  C40  1  0.50000000  0.40655397  0.44477034  1
  C  C41  1  0.50000000  0.40842524  0.94398753  1
  C  C42  1  0.50000000  0.43570913  0.13886323  1
  C  C43  1  0.50000000  0.43978683  0.63855537  1
  C  C44  1  0.50000000  0.43526096  0.30572273  1
  C  C45  1  0.50000000  0.43977916  0.80564902  1
  C  C46  1  0.50000000  0.43765742  0.47222211  1
  C  C47  1  0.50000000  0.43891456  0.97235464  1
  C  C48  1  0.50000000  0.37619480  0.02668908  1
  C  C49  1  0.50000000  0.37724578  0.52850709  1
  C  C50  1  0.50000000  0.37414162  0.19402524  1
  C  C51  1  0.50000000  0.37830910  0.69456527  1
  C  C52  1  0.50000000  0.37455902  0.36172033  1
  C  C53  1  0.50000000  0.37813991  0.86042278  1
  C  C54  1  0.50000000  0.40654204  0.05518875  1
  C  C55  1  0.50000000  0.40842149  0.55593233  1
  C  C56  1  0.50000000  0.40472168  0.22229126  1
  C  C57  1  0.50000000  0.40921895  0.72228029  1
  C  C58  1  0.50000000  0.40554530  0.38948094  1
  C  C59  1  0.50000000  0.40876836  0.88877457  1
  C  C60  1  0.50000000  0.46661642  0.11160023  1
  C  C61  1  0.50000000  0.47035790  0.61057895  1
  C  C62  1  0.50000000  0.46559379  0.27743425  1
  C  C63  1  0.50000000  0.47045357  0.77768399  1
  C  C64  1  0.50000000  0.46797603  0.44388575  1
  C  C65  1  0.50000000  0.47033992  0.94518831  1
  C  C66  1  0.50000000  0.49632105  0.14111194  1
  C  C67  1  0.50000000  0.50122112  0.63904390  1
  C  C68  1  0.50000000  0.49628532  0.30418912  1
  C  C69  1  0.50000000  0.50120778  0.80549371  1
  C  C70  1  0.50000000  0.49942578  0.47074786  1
  C  C71  1  0.50000000  0.50103815  0.97352111  1
  C  C72  1  0.50000000  0.43762745  0.02771709  1
  C  C73  1  0.50000000  0.43892421  0.52756788  1
  C  C74  1  0.50000000  0.43526056  0.19423934  1
  C  C75  1  0.50000000  0.43978058  0.69430580  1
  C  C76  1  0.50000000  0.43571676  0.36110208  1
  C  C77  1  0.50000000  0.43978602  0.86139403  1
  C  C78  1  0.50000000  0.46792667  0.05606504  1
  C  C79  1  0.50000000  0.47034384  0.55474863  1
  C  C80  1  0.50000000  0.46559971  0.22250865  1
  C  C81  1  0.50000000  0.47045121  0.72230862  1
  C  C82  1  0.50000000  0.46664645  0.38834170  1
  C  C83  1  0.50000000  0.47035011  0.88937833  1
  C  C84  1  0.50000000  0.52656266  0.11453232  1
  C  C85  1  0.50000000  0.53186901  0.61208568  1
  C  C86  1  0.50000000  0.52660065  0.27624544  1
  C  C87  1  0.50000000  0.53185595  0.77763649  1
  C  C88  1  0.50000000  0.52768926  0.43763666  1
  C  C89  1  0.50000000  0.53230736  0.94393183  1
  C  C90  1  0.50000000  0.56270612  0.64039027  1
  C  C91  1  0.50000000  0.56272501  0.80471513  1
  C  C92  1  0.50000000  0.56386736  0.96573730  1
  C  C93  1  0.50000000  0.49936469  0.02920167  1
  C  C94  1  0.50000000  0.50104838  0.52644360  1
  C  C95  1  0.50000000  0.49629236  0.19572547  1
  C  C96  1  0.50000000  0.50119604  0.69449794  1
  C  C97  1  0.50000000  0.49634784  0.35881446  1
  C  C98  1  0.50000000  0.50122855  0.86095258  1
  C  C99  1  0.50000000  0.52763186  0.06227832  1
  C  C100  1  0.50000000  0.53228064  0.55607471  1
  C  C101  1  0.50000000  0.52661499  0.22365805  1
  C  C102  1  0.50000000  0.53184541  0.72236764  1
  C  C103  1  0.50000000  0.52661276  0.38536585  1
  C  C104  1  0.50000000  0.53188133  0.88792325  1
  C  C105  1  0.50000000  0.59406534  0.61489751  1
  C  C106  1  0.50000000  0.59378360  0.77753705  1
  C  C107  1  0.50000000  0.59435740  0.93967367  1
  C  C108  1  0.50000000  0.62486952  0.64108746  1
  C  C109  1  0.50000000  0.62476631  0.80414046  1
  C  C110  1  0.50000000  0.62408043  0.96772041  1
  C  C111  1  0.50000000  0.56382441  0.53424364  1
  C  C112  1  0.50000000  0.56270696  0.69528940  1
  C  C113  1  0.50000000  0.56273632  0.85962888  1
  C  C114  1  0.50000000  0.59430455  0.56033456  1
  C  C115  1  0.50000000  0.59377045  0.72245018  1
  C  C116  1  0.50000000  0.59412104  0.88511133  1
  C  C117  1  0.50000000  0.65544921  0.61275658  1
  C  C118  1  0.50000000  0.65593227  0.77743146  1
  C  C119  1  0.50000000  0.65505203  0.94260275  1
  C  C120  1  0.50000000  0.68663999  0.63885814  1
  C  C121  1  0.50000000  0.68664350  0.80501549  1
  C  C122  1  0.50000000  0.68541413  0.97036929  1
  C  C123  1  0.50000000  0.62398403  0.53228007  1
  C  C124  1  0.50000000  0.62474408  0.69584278  1
  C  C125  1  0.50000000  0.62492630  0.85890601  1
  C  C126  1  0.50000000  0.65494784  0.55736957  1
  C  C127  1  0.50000000  0.65591800  0.72251741  1
  C  C128  1  0.50000000  0.65553579  0.88720710  1
  C  C129  1  0.50000000  0.71611932  0.60964190  1
  C  C130  1  0.50000000  0.71644004  0.77659405  1
  C  C131  1  0.50000000  0.71551148  0.94429969  1
  C  C132  1  0.50000000  0.68529693  0.52957068  1
  C  C133  1  0.50000000  0.68661045  0.69489794  1
  C  C134  1  0.50000000  0.68671481  0.86104843  1
  C  C135  1  0.50000000  0.71541781  0.55558345  1
  C  C136  1  0.50000000  0.71642497  0.72327266  1
  C  C137  1  0.50000000  0.71619531  0.89025526  1
  H  H138  1  0.50000000  0.26223983  0.63129718  1
  H  H139  1  0.50000000  0.26266341  0.79617508  1
  H  H140  1  0.50000000  0.26212514  0.96288733  1
  H  H141  1  0.50000000  0.26209457  0.53704438  1
  H  H142  1  0.50000000  0.26271973  0.70353797  1
  H  H143  1  0.50000000  0.26220327  0.86875431  1
  H  H144  1  0.50000000  0.74030937  0.62893029  1
  H  H145  1  0.50000000  0.74035757  0.79664053  1
  H  H146  1  0.50000000  0.73899323  0.96572137  1
  H  H147  1  0.50000000  0.73886604  0.53404518  1
  H  H148  1  0.50000000  0.74033501  0.70321113  1
  H  H149  1  0.50000000  0.74042536  0.87110766  1
  H  H150  1  0.50000000  0.68440941  0.48736131  1
  H  H151  1  0.50000000  0.29033603  0.11872532  1
  H  H152  1  0.50000000  0.28960514  0.28828160  1
  H  H153  1  0.50000000  0.29135174  0.45641854  1
  H  H154  1  0.50000000  0.29133134  0.04339692  1
  H  H155  1  0.50000000  0.28964793  0.21162956  1
  H  H156  1  0.50000000  0.29030758  0.38121824  1
  H  H157  1  0.50000000  0.68452069  0.01257192  1
  H  H158  1  0.50000000  0.62317039  0.48999497  1
  H  H159  1  0.50000000  0.62327167  0.01001169  1
  H  H160  1  0.50000000  0.55023791  0.13501920  1
  H  H161  1  0.50000000  0.55042368  0.29631999  1
  H  H162  1  0.50000000  0.55278621  0.45077862  1
  H  H163  1  0.50000000  0.56846634  0.00613057  1
  H  H164  1  0.50000000  0.55272795  0.04911372  1
  H  H165  1  0.50000000  0.55049517  0.20368710  1
  H  H166  1  0.50000000  0.55030279  0.36489979  1
  H  H167  1  0.50000000  0.56841055  0.49383823  1
