# generated using pymatgen
data_H22C75
_symmetry_space_group_name_H-M   'P 1'
_cell_length_a   10.00000000
_cell_length_b   41.10890000
_cell_length_c   25.92466606
_cell_angle_alpha   90.00000000
_cell_angle_beta   90.00000000
_cell_angle_gamma   90.00000000
_symmetry_Int_Tables_number   1
_chemical_formula_structural   H22C75
_chemical_formula_sum   'H44 C150'
_cell_volume   10657.34504559
_cell_formula_units_Z   2
loop_
 _symmetry_equiv_pos_site_id
 _symmetry_equiv_pos_as_xyz
  1  'x, y, z'
loop_
 _atom_site_type_symbol
 _atom_site_label
 _atom_site_symmetry_multiplicity
 _atom_site_fract_x
 _atom_site_fract_y
 _atom_site_fract_z
 _atom_site_occupancy
  C  C0  1  0.50000000  0.29016100  0.30543889  1
  C  C1  1  0.50000000  0.28987174  0.63887461  1
  C  C2  1  0.50000000  0.28947760  0.97188124  1
  C  C3  1  0.50000000  0.34948976  0.30717906  1
  C  C4  1  0.50000000  0.35001204  0.63922343  1
  C  C5  1  0.50000000  0.34951616  0.97218180  1
  C  C6  1  0.50000000  0.40991924  0.63977363  1
  C  C7  1  0.50000000  0.41007520  0.96902045  1
  C  C8  1  0.50000000  0.47000931  0.64015824  1
  C  C9  1  0.50000000  0.46994276  0.96911248  1
  C  C10  1  0.50000000  0.52999071  0.64015824  1
  C  C11  1  0.50000000  0.53005726  0.96911248  1
  C  C12  1  0.50000000  0.59008078  0.63977363  1
  C  C13  1  0.50000000  0.58992482  0.96902045  1
  C  C14  1  0.50000000  0.65051026  0.30717906  1
  C  C15  1  0.50000000  0.64998798  0.63922343  1
  C  C16  1  0.50000000  0.65048386  0.97218180  1
  C  C17  1  0.50000000  0.70983902  0.30543889  1
  C  C18  1  0.50000000  0.71012828  0.63887461  1
  C  C19  1  0.50000000  0.71052242  0.97188124  1
  C  C20  1  0.50000000  0.28937177  0.02755795  1
  C  C21  1  0.50000000  0.29002650  0.36128969  1
  C  C22  1  0.50000000  0.28985106  0.69476733  1
  C  C23  1  0.50000000  0.34858647  0.02576483  1
  C  C24  1  0.50000000  0.34931042  0.36025027  1
  C  C25  1  0.50000000  0.34991802  0.69439204  1
  C  C26  1  0.50000000  0.40983945  0.69498312  1
  C  C27  1  0.50000000  0.46994831  0.69527136  1
  C  C28  1  0.50000000  0.53005171  0.69527136  1
  C  C29  1  0.50000000  0.59016057  0.69498312  1
  C  C30  1  0.50000000  0.65141355  0.02576483  1
  C  C31  1  0.50000000  0.65068960  0.36025028  1
  C  C32  1  0.50000000  0.65008200  0.69439205  1
  C  C33  1  0.50000000  0.71062825  0.02755796  1
  C  C34  1  0.50000000  0.70997352  0.36128969  1
  C  C35  1  0.50000000  0.71014896  0.69476733  1
  C  C36  1  0.50000000  0.26012535  0.05695733  1
  C  C37  1  0.50000000  0.26043503  0.39000152  1
  C  C38  1  0.50000000  0.26060930  0.72340710  1
  C  C39  1  0.50000000  0.31951037  0.05475812  1
  C  C40  1  0.50000000  0.31983969  0.38910478  1
  C  C41  1  0.50000000  0.31983321  0.72228876  1
  C  C42  1  0.50000000  0.37985283  0.72232427  1
  C  C43  1  0.50000000  0.43990340  0.72247527  1
  C  C44  1  0.50000000  0.50000001  0.72254543  1
  C  C45  1  0.50000000  0.56009662  0.72247527  1
  C  C46  1  0.50000000  0.62014719  0.72232427  1
  C  C47  1  0.50000000  0.68048965  0.05475812  1
  C  C48  1  0.50000000  0.68016033  0.38910479  1
  C  C49  1  0.50000000  0.68016681  0.72228876  1
  C  C50  1  0.50000000  0.73987467  0.05695733  1
  C  C51  1  0.50000000  0.73956499  0.39000152  1
  C  C52  1  0.50000000  0.73939072  0.72340710  1
  C  C53  1  0.50000000  0.26046810  0.10996884  1
  C  C54  1  0.50000000  0.26010000  0.44301792  1
  C  C55  1  0.50000000  0.26060698  0.77662658  1
  C  C56  1  0.50000000  0.31988764  0.11085161  1
  C  C57  1  0.50000000  0.31947990  0.44520800  1
  C  C58  1  0.50000000  0.31983515  0.77771438  1
  C  C59  1  0.50000000  0.37985256  0.77767355  1
  C  C60  1  0.50000000  0.43990321  0.77755154  1
  C  C61  1  0.50000000  0.50000001  0.77748809  1
  C  C62  1  0.50000000  0.56009681  0.77755154  1
  C  C63  1  0.50000000  0.62014746  0.77767355  1
  C  C64  1  0.50000000  0.68011238  0.11085161  1
  C  C65  1  0.50000000  0.68052012  0.44520800  1
  C  C66  1  0.50000000  0.68016487  0.77771438  1
  C  C67  1  0.50000000  0.73953192  0.10996884  1
  C  C68  1  0.50000000  0.73990002  0.44301792  1
  C  C69  1  0.50000000  0.73939304  0.77662658  1
  C  C70  1  0.50000000  0.29007182  0.13866052  1
  C  C71  1  0.50000000  0.28934457  0.47242798  1
  C  C72  1  0.50000000  0.28985751  0.80524518  1
  C  C73  1  0.50000000  0.34934528  0.13975720  1
  C  C74  1  0.50000000  0.34856448  0.47419715  1
  C  C75  1  0.50000000  0.34992255  0.80561325  1
  C  C76  1  0.50000000  0.40983279  0.80502595  1
  C  C77  1  0.50000000  0.46994683  0.80475685  1
  C  C78  1  0.50000000  0.53005319  0.80475685  1
  C  C79  1  0.50000000  0.59016723  0.80502595  1
  C  C80  1  0.50000000  0.65065474  0.13975720  1
  C  C81  1  0.50000000  0.65143554  0.47419716  1
  C  C82  1  0.50000000  0.65007747  0.80561325  1
  C  C83  1  0.50000000  0.70992820  0.13866052  1
  C  C84  1  0.50000000  0.71065545  0.47242798  1
  C  C85  1  0.50000000  0.71014251  0.80524518  1
  C  C86  1  0.50000000  0.29019078  0.19450737  1
  C  C87  1  0.50000000  0.28946915  0.52812017  1
  C  C88  1  0.50000000  0.28986746  0.86114307  1
  C  C89  1  0.50000000  0.34949901  0.19282443  1
  C  C90  1  0.50000000  0.34951891  0.52778730  1
  C  C91  1  0.50000000  0.34999888  0.86076947  1
  C  C92  1  0.50000000  0.41009182  0.53098215  1
  C  C93  1  0.50000000  0.40991068  0.86023840  1
  C  C94  1  0.50000000  0.46995182  0.53092356  1
  C  C95  1  0.50000000  0.47000732  0.85986722  1
  C  C96  1  0.50000000  0.53004820  0.53092356  1
  C  C97  1  0.50000000  0.52999270  0.85986723  1
  C  C98  1  0.50000000  0.58990820  0.53098215  1
  C  C99  1  0.50000000  0.59008934  0.86023841  1
  C  C100  1  0.50000000  0.65050102  0.19282443  1
  C  C101  1  0.50000000  0.65048111  0.52778730  1
  C  C102  1  0.50000000  0.65000114  0.86076947  1
  C  C103  1  0.50000000  0.70980924  0.19450737  1
  C  C104  1  0.50000000  0.71053087  0.52812017  1
  C  C105  1  0.50000000  0.71013256  0.86114307  1
  C  C106  1  0.50000000  0.26074038  0.22346222  1
  C  C107  1  0.50000000  0.26013037  0.55717387  1
  C  C108  1  0.50000000  0.26037625  0.88984930  1
  C  C109  1  0.50000000  0.32016255  0.22203230  1
  C  C110  1  0.50000000  0.31944762  0.55586266  1
  C  C111  1  0.50000000  0.31961816  0.88869146  1
  C  C112  1  0.50000000  0.38039422  0.55615876  1
  C  C113  1  0.50000000  0.37994103  0.88809366  1
  C  C114  1  0.50000000  0.44028071  0.55748457  1
  C  C115  1  0.50000000  0.44004698  0.88713374  1
  C  C116  1  0.50000000  0.50000001  0.55717412  1
  C  C117  1  0.50000000  0.50000001  0.88722308  1
  C  C118  1  0.50000000  0.55971931  0.55748457  1
  C  C119  1  0.50000000  0.55995304  0.88713374  1
  C  C120  1  0.50000000  0.61960580  0.55615877  1
  C  C121  1  0.50000000  0.62005899  0.88809366  1
  C  C122  1  0.50000000  0.67983748  0.22203230  1
  C  C123  1  0.50000000  0.68055240  0.55586266  1
  C  C124  1  0.50000000  0.68038186  0.88869146  1
  C  C125  1  0.50000000  0.73925964  0.22346222  1
  C  C126  1  0.50000000  0.73986965  0.55717387  1
  C  C127  1  0.50000000  0.73962378  0.88984930  1
  C  C128  1  0.50000000  0.26072124  0.27644786  1
  C  C129  1  0.50000000  0.26038976  0.61018255  1
  C  C130  1  0.50000000  0.26013091  0.94285938  1
  C  C131  1  0.50000000  0.32015189  0.27795378  1
  C  C132  1  0.50000000  0.31962388  0.61130187  1
  C  C133  1  0.50000000  0.31944539  0.94411657  1
  C  C134  1  0.50000000  0.37994578  0.61190343  1
  C  C135  1  0.50000000  0.38039790  0.94382278  1
  C  C136  1  0.50000000  0.44005629  0.61288193  1
  C  C137  1  0.50000000  0.44026736  0.94253969  1
  C  C138  1  0.50000000  0.50000001  0.61280940  1
  C  C139  1  0.50000000  0.50000001  0.94286988  1
  C  C140  1  0.50000000  0.55994373  0.61288192  1
  C  C141  1  0.50000000  0.55973266  0.94253969  1
  C  C142  1  0.50000000  0.62005424  0.61190343  1
  C  C143  1  0.50000000  0.61960212  0.94382278  1
  C  C144  1  0.50000000  0.67984813  0.27795379  1
  C  C145  1  0.50000000  0.68037614  0.61130187  1
  C  C146  1  0.50000000  0.68055463  0.94411657  1
  C  C147  1  0.50000000  0.73927878  0.27644786  1
  C  C148  1  0.50000000  0.73961026  0.61018255  1
  C  C149  1  0.50000000  0.73986913  0.94285939  1
  H  H150  1  0.50000000  0.23655208  0.03744802  1
  H  H151  1  0.50000000  0.23715440  0.36961993  1
  H  H152  1  0.50000000  0.23722652  0.70339795  1
  H  H153  1  0.50000000  0.76344794  0.03744802  1
  H  H154  1  0.50000000  0.76284562  0.36961993  1
  H  H155  1  0.50000000  0.76277350  0.70339795  1
  H  H156  1  0.50000000  0.23718859  0.13035629  1
  H  H157  1  0.50000000  0.23651805  0.46248363  1
  H  H158  1  0.50000000  0.23723625  0.79668544  1
  H  H159  1  0.50000000  0.76281143  0.13035629  1
  H  H160  1  0.50000000  0.76348197  0.46248363  1
  H  H161  1  0.50000000  0.76276378  0.79668544  1
  H  H162  1  0.50000000  0.23734318  0.20343687  1
  H  H163  1  0.50000000  0.23667480  0.53729293  1
  H  H164  1  0.50000000  0.23706599  0.86959789  1
  H  H165  1  0.50000000  0.76265684  0.20343687  1
  H  H166  1  0.50000000  0.76332522  0.53729293  1
  H  H167  1  0.50000000  0.76293403  0.86959788  1
  H  H168  1  0.50000000  0.23730120  0.29640891  1
  H  H169  1  0.50000000  0.23707909  0.63043099  1
  H  H170  1  0.50000000  0.23669451  0.96279475  1
  H  H171  1  0.50000000  0.76269882  0.29640891  1
  H  H172  1  0.50000000  0.76292093  0.63043099  1
  H  H173  1  0.50000000  0.76330551  0.96279475  1
  H  H174  1  0.50000000  0.37303420  0.28755797  1
  H  H175  1  0.50000000  0.41128933  0.01115078  1
  H  H176  1  0.50000000  0.46981144  0.01140353  1
  H  H177  1  0.50000000  0.53018857  0.01140353  1
  H  H178  1  0.50000000  0.58871069  0.01115078  1
  H  H179  1  0.50000000  0.62696582  0.28755797  1
  H  H180  1  0.50000000  0.37151501  0.04676390  1
  H  H181  1  0.50000000  0.37276801  0.38010410  1
  H  H182  1  0.50000000  0.62848501  0.04676391  1
  H  H183  1  0.50000000  0.62723201  0.38010411  1
  H  H184  1  0.50000000  0.37283748  0.11999825  1
  H  H185  1  0.50000000  0.37148473  0.45318858  1
  H  H186  1  0.50000000  0.62716254  0.11999825  1
  H  H187  1  0.50000000  0.62851529  0.45318858  1
  H  H188  1  0.50000000  0.37303018  0.21246641  1
  H  H189  1  0.50000000  0.41131747  0.48886617  1
  H  H190  1  0.50000000  0.46983233  0.48863722  1
  H  H191  1  0.50000000  0.53016768  0.48863722  1
  H  H192  1  0.50000000  0.58868255  0.48886617  1
  H  H193  1  0.50000000  0.62696984  0.21246642  1
