# generated using pymatgen
data_H5C23
_symmetry_space_group_name_H-M   'P 1'
_cell_length_a   20.00000000
_cell_length_b   40.19450000
_cell_length_c   25.79577922
_cell_angle_alpha   90.00000000
_cell_angle_beta   90.00000000
_cell_angle_gamma   90.00000000
_symmetry_Int_Tables_number   1
_chemical_formula_structural   H5C23
_chemical_formula_sum   'H30 C138'
_cell_volume   20736.96895784
_cell_formula_units_Z   6
loop_
 _symmetry_equiv_pos_site_id
 _symmetry_equiv_pos_as_xyz
  1  'x, y, z'
loop_
 _atom_site_type_symbol
 _atom_site_label
 _atom_site_symmetry_multiplicity
 _atom_site_fract_x
 _atom_site_fract_y
 _atom_site_fract_z
 _atom_site_occupancy
  C  C0  1  0.50000000  0.28548445  0.10983795  1
  C  C1  1  0.50000000  0.28542640  0.61008691  1
  C  C2  1  0.50000000  0.28548209  0.27642764  1
  C  C3  1  0.50000000  0.28559013  0.77675610  1
  C  C4  1  0.50000000  0.28532813  0.44322351  1
  C  C5  1  0.50000000  0.28544562  0.94324694  1
  C  C6  1  0.50000000  0.31561671  0.13860643  1
  C  C7  1  0.50000000  0.31553841  0.63891467  1
  C  C8  1  0.50000000  0.31554014  0.30537661  1
  C  C9  1  0.50000000  0.31571976  0.80550443  1
  C  C10  1  0.50000000  0.31539680  0.47217018  1
  C  C11  1  0.50000000  0.31555209  0.97202679  1
  C  C12  1  0.50000000  0.28541992  0.05662267  1
  C  C13  1  0.50000000  0.28539885  0.55687926  1
  C  C14  1  0.50000000  0.28553692  0.22317609  1
  C  C15  1  0.50000000  0.28553142  0.72361472  1
  C  C16  1  0.50000000  0.28536503  0.39000572  1
  C  C17  1  0.50000000  0.28550153  0.89001905  1
  C  C18  1  0.50000000  0.34630636  0.11095428  1
  C  C19  1  0.50000000  0.34620321  0.61127670  1
  C  C20  1  0.50000000  0.34628307  0.27772821  1
  C  C21  1  0.50000000  0.34636298  0.77785007  1
  C  C22  1  0.50000000  0.34609430  0.44456765  1
  C  C23  1  0.50000000  0.34623508  0.94436618  1
  C  C24  1  0.50000000  0.37714982  0.13880665  1
  C  C25  1  0.50000000  0.37705199  0.63914529  1
  C  C26  1  0.50000000  0.37706651  0.30567116  1
  C  C27  1  0.50000000  0.37719777  0.80568615  1
  C  C28  1  0.50000000  0.37686770  0.47253349  1
  C  C29  1  0.50000000  0.37706148  0.97215433  1
  C  C30  1  0.50000000  0.31551302  0.02773731  1
  C  C31  1  0.50000000  0.31547382  0.52796980  1
  C  C32  1  0.50000000  0.31563668  0.19437115  1
  C  C33  1  0.50000000  0.31562479  0.69464737  1
  C  C34  1  0.50000000  0.31547035  0.36118309  1
  C  C35  1  0.50000000  0.31562478  0.86116882  1
  C  C36  1  0.50000000  0.34622543  0.05533491  1
  C  C37  1  0.50000000  0.34615909  0.55565372  1
  C  C38  1  0.50000000  0.34633955  0.22206178  1
  C  C39  1  0.50000000  0.34631691  0.72220448  1
  C  C40  1  0.50000000  0.34615051  0.38893502  1
  C  C41  1  0.50000000  0.34629697  0.88875969  1
  C  C42  1  0.50000000  0.40784278  0.11077193  1
  C  C43  1  0.50000000  0.40783524  0.61115837  1
  C  C44  1  0.50000000  0.40780517  0.27762005  1
  C  C45  1  0.50000000  0.40805362  0.77771309  1
  C  C46  1  0.50000000  0.40756933  0.44454820  1
  C  C47  1  0.50000000  0.40778877  0.94407881  1
  C  C48  1  0.50000000  0.43868616  0.13859211  1
  C  C49  1  0.50000000  0.43863520  0.63888242  1
  C  C50  1  0.50000000  0.43856886  0.30557890  1
  C  C51  1  0.50000000  0.43870038  0.80533779  1
  C  C52  1  0.50000000  0.43819820  0.47257276  1
  C  C53  1  0.50000000  0.43851348  0.97185059  1
  C  C54  1  0.50000000  0.37701264  0.02739865  1
  C  C55  1  0.50000000  0.37695677  0.52779927  1
  C  C56  1  0.50000000  0.37714474  0.19417653  1
  C  C57  1  0.50000000  0.37714176  0.69430004  1
  C  C58  1  0.50000000  0.37699225  0.36106600  1
  C  C59  1  0.50000000  0.37712933  0.86083992  1
  C  C60  1  0.50000000  0.40773125  0.05536910  1
  C  C61  1  0.50000000  0.40769105  0.55584142  1
  C  C62  1  0.50000000  0.40786273  0.22220799  1
  C  C63  1  0.50000000  0.40803630  0.72219477  1
  C  C64  1  0.50000000  0.40766598  0.38912648  1
  C  C65  1  0.50000000  0.40790914  0.88875875  1
  C  C66  1  0.50000000  0.46936331  0.11079259  1
  C  C67  1  0.50000000  0.46927681  0.61115235  1
  C  C68  1  0.50000000  0.46930003  0.27789330  1
  C  C69  1  0.50000000  0.46951641  0.77753642  1
  C  C70  1  0.50000000  0.46898750  0.44509646  1
  C  C71  1  0.50000000  0.46917510  0.94385090  1
  C  C72  1  0.50000000  0.49939854  0.13977685  1
  C  C73  1  0.50000000  0.50040304  0.63896264  1
  C  C74  1  0.50000000  0.49929343  0.30695781  1
  C  C75  1  0.50000000  0.50036249  0.80533742  1
  C  C76  1  0.50000000  0.49875807  0.47377014  1
  C  C77  1  0.50000000  0.49984674  0.97218824  1
  C  C78  1  0.50000000  0.43837581  0.02735474  1
  C  C79  1  0.50000000  0.43840144  0.52806180  1
  C  C80  1  0.50000000  0.43866717  0.19429772  1
  C  C81  1  0.50000000  0.43867739  0.69451959  1
  C  C82  1  0.50000000  0.43850312  0.36129972  1
  C  C83  1  0.50000000  0.43867273  0.86096456  1
  C  C84  1  0.50000000  0.46919667  0.05482719  1
  C  C85  1  0.50000000  0.46911673  0.55595222  1
  C  C86  1  0.50000000  0.46935505  0.22205756  1
  C  C87  1  0.50000000  0.46951623  0.72225877  1
  C  C88  1  0.50000000  0.46913934  0.38914047  1
  C  C89  1  0.50000000  0.46930478  0.88863557  1
  C  C90  1  0.50000000  0.53099989  0.61156292  1
  C  C91  1  0.50000000  0.53103983  0.77760786  1
  C  C92  1  0.50000000  0.53140727  0.94407943  1
  C  C93  1  0.50000000  0.56182226  0.63930144  1
  C  C94  1  0.50000000  0.56182907  0.80504401  1
  C  C95  1  0.50000000  0.56168642  0.96958043  1
  C  C96  1  0.50000000  0.49891122  0.02600055  1
  C  C97  1  0.50000000  0.49979317  0.52757121  1
  C  C98  1  0.50000000  0.49940038  0.19308727  1
  C  C99  1  0.50000000  0.50036450  0.69441013  1
  C  C100  1  0.50000000  0.49918974  0.36025686  1
  C  C101  1  0.50000000  0.50039626  0.86076553  1
  C  C102  1  0.50000000  0.53139758  0.55561631  1
  C  C103  1  0.50000000  0.53105568  0.72210098  1
  C  C104  1  0.50000000  0.53098504  0.88813238  1
  C  C105  1  0.50000000  0.59265951  0.61212229  1
  C  C106  1  0.50000000  0.59273615  0.77763006  1
  C  C107  1  0.50000000  0.59256718  0.94320476  1
  C  C108  1  0.50000000  0.62339365  0.63922815  1
  C  C109  1  0.50000000  0.62336658  0.80500443  1
  C  C110  1  0.50000000  0.62264494  0.97032400  1
  C  C111  1  0.50000000  0.56167621  0.53004589  1
  C  C112  1  0.50000000  0.56185269  0.69464121  1
  C  C113  1  0.50000000  0.56178355  0.86036430  1
  C  C114  1  0.50000000  0.59262514  0.55638967  1
  C  C115  1  0.50000000  0.59275085  0.72205636  1
  C  C116  1  0.50000000  0.59260023  0.88752091  1
  C  C117  1  0.50000000  0.65407531  0.61115963  1
  C  C118  1  0.50000000  0.65438428  0.77760453  1
  C  C119  1  0.50000000  0.65352320  0.94438601  1
  C  C120  1  0.50000000  0.68516540  0.63794870  1
  C  C121  1  0.50000000  0.68504948  0.80537587  1
  C  C122  1  0.50000000  0.68402984  0.97195902  1
  C  C123  1  0.50000000  0.62278444  0.52937681  1
  C  C124  1  0.50000000  0.62339351  0.69468772  1
  C  C125  1  0.50000000  0.62332707  0.86045352  1
  C  C126  1  0.50000000  0.65366550  0.55539889  1
  C  C127  1  0.50000000  0.65441185  0.72209004  1
  C  C128  1  0.50000000  0.65395832  0.88860368  1
  C  C129  1  0.50000000  0.71473695  0.60887007  1
  C  C130  1  0.50000000  0.71486214  0.77676348  1
  C  C131  1  0.50000000  0.71402504  0.94537224  1
  C  C132  1  0.50000000  0.68423522  0.52796082  1
  C  C133  1  0.50000000  0.68512170  0.69440677  1
  C  C134  1  0.50000000  0.68503016  0.86182861  1
  C  C135  1  0.50000000  0.71425638  0.55449840  1
  C  C136  1  0.50000000  0.71488480  0.72314976  1
  C  C137  1  0.50000000  0.71453894  0.89102016  1
  H  H138  1  0.50000000  0.26161982  0.13017723  1
  H  H139  1  0.50000000  0.26147883  0.63006245  1
  H  H140  1  0.50000000  0.26149975  0.29639936  1
  H  H141  1  0.50000000  0.26168971  0.79689742  1
  H  H142  1  0.50000000  0.26132128  0.46312452  1
  H  H143  1  0.50000000  0.26152060  0.96339117  1
  H  H144  1  0.50000000  0.26148381  0.03653021  1
  H  H145  1  0.50000000  0.26145387  0.53688100  1
  H  H146  1  0.50000000  0.26160650  0.20306050  1
  H  H147  1  0.50000000  0.26158688  0.70360084  1
  H  H148  1  0.50000000  0.26141935  0.36992560  1
  H  H149  1  0.50000000  0.26163379  0.86975470  1
  H  H150  1  0.50000000  0.73880470  0.62860173  1
  H  H151  1  0.50000000  0.73877856  0.79690940  1
  H  H152  1  0.50000000  0.73765977  0.96655198  1
  H  H153  1  0.50000000  0.73780351  0.53304747  1
  H  H154  1  0.50000000  0.73884046  0.70312020  1
  H  H155  1  0.50000000  0.73867525  0.87150592  1
  H  H156  1  0.50000000  0.68370068  0.48548979  1
  H  H157  1  0.50000000  0.62250057  0.48686228  1
  H  H158  1  0.50000000  0.56284623  0.01190333  1
  H  H159  1  0.50000000  0.62218662  0.01281864  1
  H  H160  1  0.50000000  0.56271566  0.48767455  1
  H  H161  1  0.50000000  0.68338090  0.01444710  1
  H  H162  1  0.50000000  0.52340259  0.11987969  1
  H  H163  1  0.50000000  0.52329215  0.28706535  1
  H  H164  1  0.50000000  0.52217237  0.45250412  1
  H  H165  1  0.50000000  0.52245234  0.04688373  1
  H  H166  1  0.50000000  0.52332663  0.21317146  1
  H  H167  1  0.50000000  0.52313480  0.38034683  1
