# generated using pymatgen
data_H22C75
_symmetry_space_group_name_H-M   'P 1'
_cell_length_a   10.00000000
_cell_length_b   41.10890000
_cell_length_c   25.97737265
_cell_angle_alpha   90.00000000
_cell_angle_beta   90.00000000
_cell_angle_gamma   90.00000000
_symmetry_Int_Tables_number   1
_chemical_formula_structural   H22C75
_chemical_formula_sum   'H44 C150'
_cell_volume   10679.01214652
_cell_formula_units_Z   2
loop_
 _symmetry_equiv_pos_site_id
 _symmetry_equiv_pos_as_xyz
  1  'x, y, z'
loop_
 _atom_site_type_symbol
 _atom_site_label
 _atom_site_symmetry_multiplicity
 _atom_site_fract_x
 _atom_site_fract_y
 _atom_site_fract_z
 _atom_site_occupancy
  C  C0  1  0.50000000  0.29000171  0.30529719  1
  C  C1  1  0.50000000  0.28965188  0.63872413  1
  C  C2  1  0.50000000  0.28964523  0.97180885  1
  C  C3  1  0.50000000  0.35016227  0.30583542  1
  C  C4  1  0.50000000  0.34980342  0.63922737  1
  C  C5  1  0.50000000  0.34979201  0.97183238  1
  C  C6  1  0.50000000  0.40915011  0.30703059  1
  C  C7  1  0.50000000  0.40971501  0.63936942  1
  C  C8  1  0.50000000  0.40953469  0.97158103  1
  C  C9  1  0.50000000  0.46974020  0.63992143  1
  C  C10  1  0.50000000  0.47010369  0.96858775  1
  C  C11  1  0.50000000  0.52994755  0.64038272  1
  C  C12  1  0.50000000  0.53004746  0.96853250  1
  C  C13  1  0.50000000  0.58995316  0.64046566  1
  C  C14  1  0.50000000  0.59017732  0.96850184  1
  C  C15  1  0.50000000  0.65002301  0.64012527  1
  C  C16  1  0.50000000  0.65008923  0.96835944  1
  C  C17  1  0.50000000  0.71101620  0.30778021  1
  C  C18  1  0.50000000  0.70997514  0.63985222  1
  C  C19  1  0.50000000  0.71100476  0.97091697  1
  C  C20  1  0.50000000  0.28969687  0.02785655  1
  C  C21  1  0.50000000  0.28996247  0.36146587  1
  C  C22  1  0.50000000  0.28964517  0.69474214  1
  C  C23  1  0.50000000  0.34976393  0.02704925  1
  C  C24  1  0.50000000  0.35013639  0.36136393  1
  C  C25  1  0.50000000  0.34977718  0.69456298  1
  C  C26  1  0.50000000  0.40871592  0.02557557  1
  C  C27  1  0.50000000  0.40910620  0.36036337  1
  C  C28  1  0.50000000  0.40965864  0.69457788  1
  C  C29  1  0.50000000  0.46965796  0.69511634  1
  C  C30  1  0.50000000  0.52983686  0.69538107  1
  C  C31  1  0.50000000  0.58993184  0.69537077  1
  C  C32  1  0.50000000  0.64998565  0.69513413  1
  C  C33  1  0.50000000  0.71225818  0.02437948  1
  C  C34  1  0.50000000  0.71129317  0.36082368  1
  C  C35  1  0.50000000  0.71007626  0.69501733  1
  C  C36  1  0.50000000  0.26055129  0.05674500  1
  C  C37  1  0.50000000  0.26067143  0.39000761  1
  C  C38  1  0.50000000  0.26048076  0.72339394  1
  C  C39  1  0.50000000  0.31968109  0.05526789  1
  C  C40  1  0.50000000  0.31978453  0.38918079  1
  C  C41  1  0.50000000  0.31964257  0.72231382  1
  C  C42  1  0.50000000  0.37989295  0.05432553  1
  C  C43  1  0.50000000  0.37998680  0.38915037  1
  C  C44  1  0.50000000  0.37967364  0.72222953  1
  C  C45  1  0.50000000  0.43968810  0.72240990  1
  C  C46  1  0.50000000  0.49971959  0.72253256  1
  C  C47  1  0.50000000  0.55982486  0.72259317  1
  C  C48  1  0.50000000  0.61997139  0.72250080  1
  C  C49  1  0.50000000  0.68004382  0.72250990  1
  C  C50  1  0.50000000  0.74032493  0.05525085  1
  C  C51  1  0.50000000  0.73974565  0.39153611  1
  C  C52  1  0.50000000  0.73949898  0.72354775  1
  C  C53  1  0.50000000  0.26069193  0.10994706  1
  C  C54  1  0.50000000  0.26052337  0.44321034  1
  C  C55  1  0.50000000  0.26049809  0.77666114  1
  C  C56  1  0.50000000  0.31980099  0.11078557  1
  C  C57  1  0.50000000  0.31965125  0.44468842  1
  C  C58  1  0.50000000  0.31964903  0.77770468  1
  C  C59  1  0.50000000  0.38000782  0.11082553  1
  C  C60  1  0.50000000  0.37985706  0.44564238  1
  C  C61  1  0.50000000  0.37967502  0.77776871  1
  C  C62  1  0.50000000  0.43968813  0.77758704  1
  C  C63  1  0.50000000  0.49972337  0.77748307  1
  C  C64  1  0.50000000  0.55982664  0.77744595  1
  C  C65  1  0.50000000  0.61996790  0.77752846  1
  C  C66  1  0.50000000  0.68004678  0.77751875  1
  C  C67  1  0.50000000  0.73969298  0.10850637  1
  C  C68  1  0.50000000  0.74035639  0.44477905  1
  C  C69  1  0.50000000  0.73950754  0.77646514  1
  C  C70  1  0.50000000  0.28997836  0.13849798  1
  C  C71  1  0.50000000  0.28966885  0.47210686  1
  C  C72  1  0.50000000  0.28966644  0.80531301  1
  C  C73  1  0.50000000  0.35015257  0.13860197  1
  C  C74  1  0.50000000  0.34973702  0.47291021  1
  C  C75  1  0.50000000  0.34978791  0.80543162  1
  C  C76  1  0.50000000  0.40912035  0.13962212  1
  C  C77  1  0.50000000  0.40867856  0.47440562  1
  C  C78  1  0.50000000  0.40965993  0.80540722  1
  C  C79  1  0.50000000  0.46965809  0.80487700  1
  C  C80  1  0.50000000  0.52983569  0.80464396  1
  C  C81  1  0.50000000  0.58992760  0.80467050  1
  C  C82  1  0.50000000  0.64998472  0.80490332  1
  C  C83  1  0.50000000  0.71122160  0.13916792  1
  C  C84  1  0.50000000  0.71227983  0.47564807  1
  C  C85  1  0.50000000  0.71008603  0.80501329  1
  C  C86  1  0.50000000  0.29001218  0.19466272  1
  C  C87  1  0.50000000  0.28962083  0.52816358  1
  C  C88  1  0.50000000  0.28965704  0.86128874  1
  C  C89  1  0.50000000  0.35016829  0.19413342  1
  C  C90  1  0.50000000  0.34977221  0.52813302  1
  C  C91  1  0.50000000  0.34980575  0.86075719  1
  C  C92  1  0.50000000  0.40916093  0.19295967  1
  C  C93  1  0.50000000  0.40949232  0.52840444  1
  C  C94  1  0.50000000  0.40970716  0.86061112  1
  C  C95  1  0.50000000  0.47014223  0.53140349  1
  C  C96  1  0.50000000  0.46974127  0.86006828  1
  C  C97  1  0.50000000  0.53006800  0.53149022  1
  C  C98  1  0.50000000  0.52994171  0.85964066  1
  C  C99  1  0.50000000  0.59019990  0.53153040  1
  C  C100  1  0.50000000  0.58993723  0.85957231  1
  C  C101  1  0.50000000  0.65010605  0.53165543  1
  C  C102  1  0.50000000  0.65001544  0.85991010  1
  C  C103  1  0.50000000  0.71095366  0.19220521  1
  C  C104  1  0.50000000  0.71102039  0.52911097  1
  C  C105  1  0.50000000  0.70997070  0.86018285  1
  C  C106  1  0.50000000  0.26083639  0.22334504  1
  C  C107  1  0.50000000  0.26039813  0.55682093  1
  C  C108  1  0.50000000  0.26044583  0.88996685  1
  C  C109  1  0.50000000  0.31993486  0.22222162  1
  C  C110  1  0.50000000  0.31952832  0.55585373  1
  C  C111  1  0.50000000  0.31958848  0.88872652  1
  C  C112  1  0.50000000  0.38006702  0.22181750  1
  C  C113  1  0.50000000  0.37962951  0.55614031  1
  C  C114  1  0.50000000  0.37962424  0.88825637  1
  C  C115  1  0.50000000  0.44030662  0.55661890  1
  C  C116  1  0.50000000  0.43982676  0.88791041  1
  C  C117  1  0.50000000  0.50019472  0.55790771  1
  C  C118  1  0.50000000  0.49992932  0.88684571  1
  C  C119  1  0.50000000  0.56000214  0.55767863  1
  C  C120  1  0.50000000  0.55993089  0.88685343  1
  C  C121  1  0.50000000  0.61983663  0.55797314  1
  C  C122  1  0.50000000  0.61997014  0.88670476  1
  C  C123  1  0.50000000  0.67989029  0.55677424  1
  C  C124  1  0.50000000  0.68023014  0.88743197  1
  C  C125  1  0.50000000  0.73916834  0.22348545  1
  C  C126  1  0.50000000  0.74029118  0.55899614  1
  C  C127  1  0.50000000  0.73989066  0.88862243  1
  C  C128  1  0.50000000  0.26082122  0.27659699  1
  C  C129  1  0.50000000  0.26043897  0.61003438  1
  C  C130  1  0.50000000  0.26041631  0.94316290  1
  C  C131  1  0.50000000  0.31992750  0.27774497  1
  C  C132  1  0.50000000  0.31958841  0.61122586  1
  C  C133  1  0.50000000  0.31954891  0.94409611  1
  C  C134  1  0.50000000  0.38006216  0.27815212  1
  C  C135  1  0.50000000  0.37961831  0.61172780  1
  C  C136  1  0.50000000  0.37965472  0.94384120  1
  C  C137  1  0.50000000  0.43983571  0.61206515  1
  C  C138  1  0.50000000  0.44031131  0.94335509  1
  C  C139  1  0.50000000  0.49993769  0.61316010  1
  C  C140  1  0.50000000  0.50017932  0.94211052  1
  C  C141  1  0.50000000  0.55994543  0.61318099  1
  C  C142  1  0.50000000  0.55997882  0.94235592  1
  C  C143  1  0.50000000  0.61998400  0.61332857  1
  C  C144  1  0.50000000  0.61981229  0.94205484  1
  C  C145  1  0.50000000  0.68023600  0.61260550  1
  C  C146  1  0.50000000  0.67987554  0.94324160  1
  C  C147  1  0.50000000  0.73920440  0.27643862  1
  C  C148  1  0.50000000  0.73989725  0.61142240  1
  C  C149  1  0.50000000  0.74028050  0.94103799  1
  H  H150  1  0.50000000  0.23703845  0.03705708  1
  H  H151  1  0.50000000  0.23724478  0.37005451  1
  H  H152  1  0.50000000  0.23700639  0.70358457  1
  H  H153  1  0.50000000  0.76431976  0.03695900  1
  H  H154  1  0.50000000  0.76333743  0.37187323  1
  H  H155  1  0.50000000  0.76292293  0.70364597  1
  H  H156  1  0.50000000  0.23726496  0.12989240  1
  H  H157  1  0.50000000  0.23701320  0.46291932  1
  H  H158  1  0.50000000  0.23702717  0.79646906  1
  H  H159  1  0.50000000  0.76326448  0.12820657  1
  H  H160  1  0.50000000  0.76434394  0.46307949  1
  H  H161  1  0.50000000  0.76293819  0.79636081  1
  H  H162  1  0.50000000  0.23735528  0.20358393  1
  H  H163  1  0.50000000  0.23691902  0.53703383  1
  H  H164  1  0.50000000  0.23701140  0.87006426  1
  H  H165  1  0.50000000  0.76296745  0.20447128  1
  H  H166  1  0.50000000  0.76378697  0.53933241  1
  H  H167  1  0.50000000  0.76317607  0.86831391  1
  H  H168  1  0.50000000  0.23734093  0.29636528  1
  H  H169  1  0.50000000  0.23700785  0.62996222  1
  H  H170  1  0.50000000  0.23693513  0.96294125  1
  H  H171  1  0.50000000  0.76302908  0.29537471  1
  H  H172  1  0.50000000  0.76317529  0.63173568  1
  H  H173  1  0.50000000  0.76378020  0.96068728  1
  H  H174  1  0.50000000  0.43265833  0.28737828  1
  H  H175  1  0.50000000  0.47131686  0.01063433  1
  H  H176  1  0.50000000  0.53007080  0.01073031  1
  H  H177  1  0.50000000  0.59033570  0.01070131  1
  H  H178  1  0.50000000  0.64888420  0.01043054  1
  H  H179  1  0.50000000  0.68718712  0.28880986  1
  H  H180  1  0.50000000  0.43177006  0.04623178  1
  H  H181  1  0.50000000  0.43264481  0.37995841  1
  H  H182  1  0.50000000  0.68912413  0.04505554  1
  H  H183  1  0.50000000  0.68748398  0.37985152  1
  H  H184  1  0.50000000  0.43265438  0.12002471  1
  H  H185  1  0.50000000  0.43175401  0.45380769  1
  H  H186  1  0.50000000  0.68742198  0.12011512  1
  H  H187  1  0.50000000  0.68915792  0.45495957  1
  H  H188  1  0.50000000  0.43266939  0.21261362  1
  H  H189  1  0.50000000  0.47138193  0.48936258  1
  H  H190  1  0.50000000  0.53009244  0.48929982  1
  H  H191  1  0.50000000  0.59035210  0.48933115  1
  H  H192  1  0.50000000  0.64888567  0.48958603  1
  H  H193  1  0.50000000  0.68713120  0.21118840  1
