# generated using pymatgen
data_H7C22
_symmetry_space_group_name_H-M   'P 1'
_cell_length_a   20.00000000
_cell_length_b   37.22700000
_cell_length_c   26.18013473
_cell_angle_alpha   90.00000000
_cell_angle_beta   90.00000000
_cell_angle_gamma   90.00000000
_symmetry_Int_Tables_number   1
_chemical_formula_structural   H7C22
_chemical_formula_sum   'H42 C132'
_cell_volume   19492.15751058
_cell_formula_units_Z   6
loop_
 _symmetry_equiv_pos_site_id
 _symmetry_equiv_pos_as_xyz
  1  'x, y, z'
loop_
 _atom_site_type_symbol
 _atom_site_label
 _atom_site_symmetry_multiplicity
 _atom_site_fract_x
 _atom_site_fract_y
 _atom_site_fract_z
 _atom_site_occupancy
  C  C0  1  0.50000000  0.31465586  0.22180637  1
  C  C1  1  0.50000000  0.31844348  0.55558672  1
  C  C2  1  0.50000000  0.31844808  0.88846388  1
  C  C3  1  0.50000000  0.38064349  0.22262061  1
  C  C4  1  0.50000000  0.38522481  0.55498934  1
  C  C5  1  0.50000000  0.38483995  0.88909152  1
  C  C6  1  0.50000000  0.44608613  0.22373276  1
  C  C7  1  0.50000000  0.45140257  0.55731100  1
  C  C8  1  0.50000000  0.45078132  0.88728405  1
  C  C9  1  0.50000000  0.51815076  0.56179202  1
  C  C10  1  0.50000000  0.51755751  0.88408569  1
  C  C11  1  0.50000000  0.58368905  0.56006703  1
  C  C12  1  0.50000000  0.58376015  0.88500271  1
  C  C13  1  0.50000000  0.64986206  0.55795125  1
  C  C14  1  0.50000000  0.65031096  0.88655093  1
  C  C15  1  0.50000000  0.71385997  0.22359936  1
  C  C16  1  0.50000000  0.71636323  0.55927323  1
  C  C17  1  0.50000000  0.71600320  0.88856813  1
  C  C18  1  0.50000000  0.31465691  0.27815526  1
  C  C19  1  0.50000000  0.31846503  0.61155634  1
  C  C20  1  0.50000000  0.31841063  0.94442819  1
  C  C21  1  0.50000000  0.38064987  0.27736619  1
  C  C22  1  0.50000000  0.38485708  0.61093133  1
  C  C23  1  0.50000000  0.38520406  0.94501910  1
  C  C24  1  0.50000000  0.44608578  0.27625896  1
  C  C25  1  0.50000000  0.45078333  0.61268327  1
  C  C26  1  0.50000000  0.45136273  0.94264050  1
  C  C27  1  0.50000000  0.51756322  0.61589819  1
  C  C28  1  0.50000000  0.51811017  0.93819297  1
  C  C29  1  0.50000000  0.58377782  0.61498330  1
  C  C30  1  0.50000000  0.58365848  0.93991428  1
  C  C31  1  0.50000000  0.65033206  0.61344974  1
  C  C32  1  0.50000000  0.64983593  0.94205812  1
  C  C33  1  0.50000000  0.71386359  0.27637961  1
  C  C34  1  0.50000000  0.71605761  0.61145721  1
  C  C35  1  0.50000000  0.71631019  0.94075049  1
  C  C36  1  0.50000000  0.28280602  0.30761998  1
  C  C37  1  0.50000000  0.28638783  0.64017535  1
  C  C38  1  0.50000000  0.28596399  0.97246013  1
  C  C39  1  0.50000000  0.34764723  0.30575846  1
  C  C40  1  0.50000000  0.35162603  0.63889295  1
  C  C41  1  0.50000000  0.35130831  0.97244923  1
  C  C42  1  0.50000000  0.41363728  0.30407213  1
  C  C43  1  0.50000000  0.41748331  0.63944100  1
  C  C44  1  0.50000000  0.41816848  0.97269782  1
  C  C45  1  0.50000000  0.48380331  0.64103620  1
  C  C46  1  0.50000000  0.48562908  0.96435033  1
  C  C47  1  0.50000000  0.55071239  0.64235041  1
  C  C48  1  0.50000000  0.55081571  0.96540782  1
  C  C49  1  0.50000000  0.61705155  0.64113101  1
  C  C50  1  0.50000000  0.61680846  0.96652664  1
  C  C51  1  0.50000000  0.68305256  0.30800755  1
  C  C52  1  0.50000000  0.68323471  0.64021275  1
  C  C53  1  0.50000000  0.68393661  0.97024624  1
  C  C54  1  0.50000000  0.28516950  0.02536514  1
  C  C55  1  0.50000000  0.28327164  0.36073540  1
  C  C56  1  0.50000000  0.28628470  0.69323802  1
  C  C57  1  0.50000000  0.35028934  0.02767639  1
  C  C58  1  0.50000000  0.34817156  0.36109177  1
  C  C59  1  0.50000000  0.35138653  0.69431525  1
  C  C60  1  0.50000000  0.41699485  0.02924269  1
  C  C61  1  0.50000000  0.41373232  0.35924531  1
  C  C62  1  0.50000000  0.41731736  0.69483846  1
  C  C63  1  0.50000000  0.48367321  0.69572051  1
  C  C64  1  0.50000000  0.55052194  0.69642830  1
  C  C65  1  0.50000000  0.61700418  0.69565068  1
  C  C66  1  0.50000000  0.68482713  0.02359290  1
  C  C67  1  0.50000000  0.68340356  0.36090818  1
  C  C68  1  0.50000000  0.68337829  0.69517306  1
  C  C69  1  0.50000000  0.31687413  0.05476926  1
  C  C70  1  0.50000000  0.31562880  0.38919739  1
  C  C71  1  0.50000000  0.31831393  0.72198919  1
  C  C72  1  0.50000000  0.38324608  0.05606871  1
  C  C73  1  0.50000000  0.38175944  0.38846962  1
  C  C74  1  0.50000000  0.38443506  0.72234709  1
  C  C75  1  0.50000000  0.44740724  0.06200035  1
  C  C76  1  0.50000000  0.44617215  0.38573826  1
  C  C77  1  0.50000000  0.45037368  0.72262651  1
  C  C78  1  0.50000000  0.51691897  0.72280057  1
  C  C79  1  0.50000000  0.58384619  0.72281349  1
  C  C80  1  0.50000000  0.65026392  0.72267018  1
  C  C81  1  0.50000000  0.71541810  0.05515194  1
  C  C82  1  0.50000000  0.71455893  0.39180235  1
  C  C83  1  0.50000000  0.71575375  0.72367135  1
  C  C84  1  0.50000000  0.31561770  0.11077624  1
  C  C85  1  0.50000000  0.31688285  0.44519227  1
  C  C86  1  0.50000000  0.31830940  0.77802064  1
  C  C87  1  0.50000000  0.38174289  0.11149163  1
  C  C88  1  0.50000000  0.38324926  0.44389093  1
  C  C89  1  0.50000000  0.38442642  0.77760923  1
  C  C90  1  0.50000000  0.44613493  0.11428196  1
  C  C91  1  0.50000000  0.44739362  0.43802779  1
  C  C92  1  0.50000000  0.45037459  0.77736941  1
  C  C93  1  0.50000000  0.51692248  0.77718742  1
  C  C94  1  0.50000000  0.58383505  0.77716743  1
  C  C95  1  0.50000000  0.65026594  0.77730126  1
  C  C96  1  0.50000000  0.71450291  0.10823114  1
  C  C97  1  0.50000000  0.71544270  0.44490134  1
  C  C98  1  0.50000000  0.71576622  0.77626881  1
  C  C99  1  0.50000000  0.28325550  0.13923144  1
  C  C100  1  0.50000000  0.28520813  0.47462743  1
  C  C101  1  0.50000000  0.28627460  0.80676790  1
  C  C102  1  0.50000000  0.34815854  0.13887374  1
  C  C103  1  0.50000000  0.35029950  0.47228330  1
  C  C104  1  0.50000000  0.35138905  0.80569193  1
  C  C105  1  0.50000000  0.41369628  0.14075267  1
  C  C106  1  0.50000000  0.41697898  0.47073915  1
  C  C107  1  0.50000000  0.41730863  0.80514334  1
  C  C108  1  0.50000000  0.48366936  0.80425931  1
  C  C109  1  0.50000000  0.55051799  0.80356028  1
  C  C110  1  0.50000000  0.61700604  0.80432648  1
  C  C111  1  0.50000000  0.68334323  0.13909890  1
  C  C112  1  0.50000000  0.68486264  0.47646569  1
  C  C113  1  0.50000000  0.68338012  0.80478253  1
  C  C114  1  0.50000000  0.28280968  0.19234732  1
  C  C115  1  0.50000000  0.28600518  0.52752515  1
  C  C116  1  0.50000000  0.28638082  0.85982218  1
  C  C117  1  0.50000000  0.34764263  0.19420536  1
  C  C118  1  0.50000000  0.35132647  0.52753024  1
  C  C119  1  0.50000000  0.35160619  0.86112219  1
  C  C120  1  0.50000000  0.41362840  0.19592063  1
  C  C121  1  0.50000000  0.41818748  0.52728869  1
  C  C122  1  0.50000000  0.41747724  0.86058571  1
  C  C123  1  0.50000000  0.48566420  0.53561403  1
  C  C124  1  0.50000000  0.48379992  0.85894274  1
  C  C125  1  0.50000000  0.55085165  0.53458431  1
  C  C126  1  0.50000000  0.55071387  0.85763142  1
  C  C127  1  0.50000000  0.61683571  0.53347710  1
  C  C128  1  0.50000000  0.61703108  0.85886016  1
  C  C129  1  0.50000000  0.68301932  0.19201016  1
  C  C130  1  0.50000000  0.68399023  0.52982011  1
  C  C131  1  0.50000000  0.68321481  0.85976012  1
  H  H132  1  0.50000000  0.74024586  0.20496395  1
  H  H133  1  0.50000000  0.74220200  0.53931689  1
  H  H134  1  0.50000000  0.74183643  0.86875850  1
  H  H135  1  0.50000000  0.74021283  0.29508329  1
  H  H136  1  0.50000000  0.74180618  0.63146569  1
  H  H137  1  0.50000000  0.74222378  0.96049433  1
  H  H138  1  0.50000000  0.25662433  0.28864991  1
  H  H139  1  0.50000000  0.26040804  0.62063062  1
  H  H140  1  0.50000000  0.26021680  0.95239669  1
  H  H141  1  0.50000000  0.25904512  0.04444700  1
  H  H142  1  0.50000000  0.25733144  0.38034533  1
  H  H143  1  0.50000000  0.26023493  0.71249694  1
  H  H144  1  0.50000000  0.74221886  0.03774763  1
  H  H145  1  0.50000000  0.74059453  0.37222335  1
  H  H146  1  0.50000000  0.74163939  0.70400042  1
  H  H147  1  0.50000000  0.74052976  0.12783334  1
  H  H148  1  0.50000000  0.74219634  0.46243017  1
  H  H149  1  0.50000000  0.74167057  0.79588790  1
  H  H150  1  0.50000000  0.25732173  0.11960725  1
  H  H151  1  0.50000000  0.25902001  0.45571717  1
  H  H152  1  0.50000000  0.26022303  0.78748874  1
  H  H153  1  0.50000000  0.25665089  0.21136874  1
  H  H154  1  0.50000000  0.26023662  0.54749464  1
  H  H155  1  0.50000000  0.26042898  0.87940083  1
  H  H156  1  0.50000000  0.47197111  0.20411315  1
  H  H157  1  0.50000000  0.47195851  0.29590556  1
  H  H158  1  0.50000000  0.48978700  0.00457133  1
  H  H159  1  0.50000000  0.55017831  0.00731810  1
  H  H160  1  0.50000000  0.61517101  0.00825394  1
  H  H161  1  0.50000000  0.65662667  0.28942092  1
  H  H162  1  0.50000000  0.65898544  0.04356156  1
  H  H163  1  0.50000000  0.65709931  0.37979840  1
  H  H164  1  0.50000000  0.47478738  0.04951328  1
  H  H165  1  0.50000000  0.47187793  0.36566902  1
  H  H166  1  0.50000000  0.47178501  0.13448731  1
  H  H167  1  0.50000000  0.47474611  0.45059428  1
  H  H168  1  0.50000000  0.65706202  0.12012388  1
  H  H169  1  0.50000000  0.65898152  0.45663681  1
  H  H170  1  0.50000000  0.48986575  0.49540182  1
  H  H171  1  0.50000000  0.55019352  0.49267887  1
  H  H172  1  0.50000000  0.61519210  0.49173909  1
  H  H173  1  0.50000000  0.65657112  0.21051427  1
