# generated using pymatgen
data_H5C22
_symmetry_space_group_name_H-M   'P 1'
_cell_length_a   20.00000000
_cell_length_b   37.22700000
_cell_length_c   25.95333080
_cell_angle_alpha   90.00000000
_cell_angle_beta   90.00000000
_cell_angle_gamma   90.00000000
_symmetry_Int_Tables_number   1
_chemical_formula_structural   H5C22
_chemical_formula_sum   'H30 C132'
_cell_volume   19323.29291087
_cell_formula_units_Z   6
loop_
 _symmetry_equiv_pos_site_id
 _symmetry_equiv_pos_as_xyz
  1  'x, y, z'
loop_
 _atom_site_type_symbol
 _atom_site_label
 _atom_site_symmetry_multiplicity
 _atom_site_fract_x
 _atom_site_fract_y
 _atom_site_fract_z
 _atom_site_occupancy
  C  C0  1  0.50000000  0.31531582  0.55591093  1
  C  C1  1  0.50000000  0.31523849  0.88740843  1
  C  C2  1  0.50000000  0.38149076  0.56036134  1
  C  C3  1  0.50000000  0.38191070  0.88503662  1
  C  C4  1  0.50000000  0.45461445  0.22368752  1
  C  C5  1  0.50000000  0.44842337  0.55611218  1
  C  C6  1  0.50000000  0.44891536  0.88795653  1
  C  C7  1  0.50000000  0.52039586  0.22256806  1
  C  C8  1  0.50000000  0.51523470  0.55479140  1
  C  C9  1  0.50000000  0.51522778  0.88938222  1
  C  C10  1  0.50000000  0.58610875  0.22228778  1
  C  C11  1  0.50000000  0.58203613  0.55592944  1
  C  C12  1  0.50000000  0.58170428  0.88878116  1
  C  C13  1  0.50000000  0.65231149  0.22184162  1
  C  C14  1  0.50000000  0.64832906  0.55698468  1
  C  C15  1  0.50000000  0.64813126  0.88786139  1
  C  C16  1  0.50000000  0.71434571  0.55822927  1
  C  C17  1  0.50000000  0.71403247  0.88893344  1
  C  C18  1  0.50000000  0.31523827  0.61258582  1
  C  C19  1  0.50000000  0.31531430  0.94408174  1
  C  C20  1  0.50000000  0.38190763  0.61496233  1
  C  C21  1  0.50000000  0.38149354  0.93963791  1
  C  C22  1  0.50000000  0.45462912  0.27634131  1
  C  C23  1  0.50000000  0.44891159  0.61206150  1
  C  C24  1  0.50000000  0.44842977  0.94390761  1
  C  C25  1  0.50000000  0.52040907  0.27745818  1
  C  C26  1  0.50000000  0.51522463  0.61063052  1
  C  C27  1  0.50000000  0.51524174  0.94522289  1
  C  C28  1  0.50000000  0.58611677  0.27775979  1
  C  C29  1  0.50000000  0.58169446  0.61122296  1
  C  C30  1  0.50000000  0.58204390  0.94407161  1
  C  C31  1  0.50000000  0.65231874  0.27816380  1
  C  C32  1  0.50000000  0.64811590  0.61212447  1
  C  C33  1  0.50000000  0.64834012  0.94300478  1
  C  C34  1  0.50000000  0.71401681  0.61105056  1
  C  C35  1  0.50000000  0.71435515  0.94175359  1
  C  C36  1  0.50000000  0.28301298  0.64040887  1
  C  C37  1  0.50000000  0.28474323  0.97416960  1
  C  C38  1  0.50000000  0.34827252  0.64083151  1
  C  C39  1  0.50000000  0.34967848  0.96788965  1
  C  C40  1  0.50000000  0.41546295  0.64033386  1
  C  C41  1  0.50000000  0.41437864  0.96570024  1
  C  C42  1  0.50000000  0.48727433  0.30417325  1
  C  C43  1  0.50000000  0.48192611  0.63898426  1
  C  C44  1  0.50000000  0.48214716  0.97350372  1
  C  C45  1  0.50000000  0.55317803  0.30572841  1
  C  C46  1  0.50000000  0.54825166  0.63863749  1
  C  C47  1  0.50000000  0.54918613  0.97240549  1
  C  C48  1  0.50000000  0.61916543  0.30590657  1
  C  C49  1  0.50000000  0.61466509  0.63951850  1
  C  C50  1  0.50000000  0.61565269  0.97145227  1
  C  C51  1  0.50000000  0.68429260  0.30773285  1
  C  C52  1  0.50000000  0.68124404  0.63953279  1
  C  C53  1  0.50000000  0.68172796  0.97036144  1
  C  C54  1  0.50000000  0.28295008  0.69374817  1
  C  C55  1  0.50000000  0.34843274  0.69557829  1
  C  C56  1  0.50000000  0.41548830  0.69550367  1
  C  C57  1  0.50000000  0.48384174  0.02930301  1
  C  C58  1  0.50000000  0.48718123  0.35890504  1
  C  C59  1  0.50000000  0.48202657  0.69456418  1
  C  C60  1  0.50000000  0.55054064  0.02777226  1
  C  C61  1  0.50000000  0.55266298  0.36114261  1
  C  C62  1  0.50000000  0.54825075  0.69428762  1
  C  C63  1  0.50000000  0.61681045  0.02671173  1
  C  C64  1  0.50000000  0.61864690  0.36163219  1
  C  C65  1  0.50000000  0.61445611  0.69461188  1
  C  C66  1  0.50000000  0.68209486  0.02452423  1
  C  C67  1  0.50000000  0.68377918  0.36116107  1
  C  C68  1  0.50000000  0.68092223  0.69486161  1
  C  C69  1  0.50000000  0.31506988  0.72223140  1
  C  C70  1  0.50000000  0.38214315  0.72254156  1
  C  C71  1  0.50000000  0.45332302  0.06229709  1
  C  C72  1  0.50000000  0.45454509  0.38539403  1
  C  C73  1  0.50000000  0.44889458  0.72245435  1
  C  C74  1  0.50000000  0.51779369  0.05612304  1
  C  C75  1  0.50000000  0.51924163  0.38836552  1
  C  C76  1  0.50000000  0.51504485  0.72223082  1
  C  C77  1  0.50000000  0.58409500  0.05519189  1
  C  C78  1  0.50000000  0.58518915  0.38940264  1
  C  C79  1  0.50000000  0.58115610  0.72220812  1
  C  C80  1  0.50000000  0.65062083  0.05379886  1
  C  C81  1  0.50000000  0.65139435  0.38980541  1
  C  C82  1  0.50000000  0.64773137  0.72231612  1
  C  C83  1  0.50000000  0.71339976  0.72357666  1
  C  C84  1  0.50000000  0.31507180  0.77776193  1
  C  C85  1  0.50000000  0.38214456  0.77746585  1
  C  C86  1  0.50000000  0.45455343  0.11461251  1
  C  C87  1  0.50000000  0.45331921  0.43771184  1
  C  C88  1  0.50000000  0.44889442  0.77755330  1
  C  C89  1  0.50000000  0.51924557  0.11166491  1
  C  C90  1  0.50000000  0.51777998  0.44387817  1
  C  C91  1  0.50000000  0.51504108  0.77778301  1
  C  C92  1  0.50000000  0.58519648  0.11060712  1
  C  C93  1  0.50000000  0.58408594  0.44481811  1
  C  C94  1  0.50000000  0.58115729  0.77780327  1
  C  C95  1  0.50000000  0.65140853  0.11018558  1
  C  C96  1  0.50000000  0.65060792  0.44619358  1
  C  C97  1  0.50000000  0.64773226  0.77768325  1
  C  C98  1  0.50000000  0.71340333  0.77639315  1
  C  C99  1  0.50000000  0.28295245  0.80624387  1
  C  C100  1  0.50000000  0.34843343  0.80442289  1
  C  C101  1  0.50000000  0.41549062  0.80450436  1
  C  C102  1  0.50000000  0.48719052  0.14110881  1
  C  C103  1  0.50000000  0.48383665  0.47071062  1
  C  C104  1  0.50000000  0.48202489  0.80544760  1
  C  C105  1  0.50000000  0.55267175  0.13887487  1
  C  C106  1  0.50000000  0.55052787  0.47222748  1
  C  C107  1  0.50000000  0.54825328  0.80570674  1
  C  C108  1  0.50000000  0.61866383  0.13834219  1
  C  C109  1  0.50000000  0.61680218  0.47328908  1
  C  C110  1  0.50000000  0.61445502  0.80537542  1
  C  C111  1  0.50000000  0.68379000  0.13883858  1
  C  C112  1  0.50000000  0.68208381  0.47546568  1
  C  C113  1  0.50000000  0.68092685  0.80511760  1
  C  C114  1  0.50000000  0.28474759  0.52581547  1
  C  C115  1  0.50000000  0.28301510  0.85958184  1
  C  C116  1  0.50000000  0.34967853  0.53210461  1
  C  C117  1  0.50000000  0.34827328  0.85916820  1
  C  C118  1  0.50000000  0.41437762  0.53430996  1
  C  C119  1  0.50000000  0.41546915  0.85967466  1
  C  C120  1  0.50000000  0.48726876  0.19582349  1
  C  C121  1  0.50000000  0.48214138  0.52651514  1
  C  C122  1  0.50000000  0.48192771  0.86103082  1
  C  C123  1  0.50000000  0.55317127  0.19430448  1
  C  C124  1  0.50000000  0.54917427  0.52759763  1
  C  C125  1  0.50000000  0.54825694  0.86137527  1
  C  C126  1  0.50000000  0.61916096  0.19408716  1
  C  C127  1  0.50000000  0.61564218  0.52854664  1
  C  C128  1  0.50000000  0.61467661  0.86047792  1
  C  C129  1  0.50000000  0.68428543  0.19226871  1
  C  C130  1  0.50000000  0.68171676  0.52962846  1
  C  C131  1  0.50000000  0.68126008  0.86044830  1
  H  H132  1  0.50000000  0.73985807  0.53714427  1
  H  H133  1  0.50000000  0.73967187  0.86850656  1
  H  H134  1  0.50000000  0.73964998  0.63148994  1
  H  H135  1  0.50000000  0.73987378  0.96281846  1
  H  H136  1  0.50000000  0.25725454  0.62012283  1
  H  H137  1  0.50000000  0.25742897  0.95868061  1
  H  H138  1  0.50000000  0.25707076  0.71357897  1
  H  H139  1  0.50000000  0.73924730  0.70368010  1
  H  H140  1  0.50000000  0.73926030  0.79627000  1
  H  H141  1  0.50000000  0.25707352  0.78641437  1
  H  H142  1  0.50000000  0.25743313  0.54130681  1
  H  H143  1  0.50000000  0.25725696  0.87986692  1
  H  H144  1  0.50000000  0.42889240  0.20364472  1
  H  H145  1  0.50000000  0.42890311  0.29635745  1
  H  H146  1  0.50000000  0.28746974  0.01619231  1
  H  H147  1  0.50000000  0.35138334  0.01010525  1
  H  H148  1  0.50000000  0.40938405  0.00605222  1
  H  H149  1  0.50000000  0.71044021  0.28844333  1
  H  H150  1  0.50000000  0.70834919  0.04344198  1
  H  H151  1  0.50000000  0.70959691  0.38125525  1
  H  H152  1  0.50000000  0.42617953  0.04922246  1
  H  H153  1  0.50000000  0.42899478  0.36489285  1
  H  H154  1  0.50000000  0.42899102  0.13509780  1
  H  H155  1  0.50000000  0.42617609  0.45077576  1
  H  H156  1  0.50000000  0.70961293  0.11874421  1
  H  H157  1  0.50000000  0.70833574  0.45653648  1
  H  H158  1  0.50000000  0.28747457  0.48378951  1
  H  H159  1  0.50000000  0.35137632  0.48988850  1
  H  H160  1  0.50000000  0.40940116  0.49395292  1
  H  H161  1  0.50000000  0.71043464  0.21154768  1
