# generated using pymatgen
data_H7C22
_symmetry_space_group_name_H-M   'P 1'
_cell_length_a   20.00000000
_cell_length_b   37.22700000
_cell_length_c   26.01744130
_cell_angle_alpha   90.00000000
_cell_angle_beta   90.00000000
_cell_angle_gamma   90.00000000
_symmetry_Int_Tables_number   1
_chemical_formula_structural   H7C22
_chemical_formula_sum   'H42 C132'
_cell_volume   19371.02574412
_cell_formula_units_Z   6
loop_
 _symmetry_equiv_pos_site_id
 _symmetry_equiv_pos_as_xyz
  1  'x, y, z'
loop_
 _atom_site_type_symbol
 _atom_site_label
 _atom_site_symmetry_multiplicity
 _atom_site_fract_x
 _atom_site_fract_y
 _atom_site_fract_z
 _atom_site_occupancy
  C  C0  1  0.50000000  0.31533721  0.22200426  1
  C  C1  1  0.50000000  0.31449721  0.55557870  1
  C  C2  1  0.50000000  0.31440428  0.88868305  1
  C  C3  1  0.50000000  0.38177617  0.22193976  1
  C  C4  1  0.50000000  0.38080004  0.55633403  1
  C  C5  1  0.50000000  0.38070244  0.88856794  1
  C  C6  1  0.50000000  0.44788467  0.55666420  1
  C  C7  1  0.50000000  0.44710537  0.88759017  1
  C  C8  1  0.50000000  0.51403314  0.55832601  1
  C  C9  1  0.50000000  0.51355298  0.88631485  1
  C  C10  1  0.50000000  0.57995313  0.55900734  1
  C  C11  1  0.50000000  0.57982231  0.88611728  1
  C  C12  1  0.50000000  0.67024345  0.22375158  1
  C  C13  1  0.50000000  0.64684772  0.55582383  1
  C  C14  1  0.50000000  0.64653284  0.88833908  1
  C  C15  1  0.50000000  0.73458392  0.22304178  1
  C  C16  1  0.50000000  0.71223979  0.55916173  1
  C  C17  1  0.50000000  0.71173501  0.88810804  1
  C  C18  1  0.50000000  0.31533354  0.27767483  1
  C  C19  1  0.50000000  0.31446584  0.61121916  1
  C  C20  1  0.50000000  0.31439902  0.94426733  1
  C  C21  1  0.50000000  0.38177161  0.27772629  1
  C  C22  1  0.50000000  0.38076479  0.61127153  1
  C  C23  1  0.50000000  0.38071432  0.94348457  1
  C  C24  1  0.50000000  0.44719382  0.61226919  1
  C  C25  1  0.50000000  0.44777171  0.94319622  1
  C  C26  1  0.50000000  0.51366019  0.61362198  1
  C  C27  1  0.50000000  0.51388227  0.94160350  1
  C  C28  1  0.50000000  0.57993884  0.61396400  1
  C  C29  1  0.50000000  0.57976586  0.94107195  1
  C  C30  1  0.50000000  0.67031002  0.27652520  1
  C  C31  1  0.50000000  0.64662843  0.61184881  1
  C  C32  1  0.50000000  0.64662968  0.94437481  1
  C  C33  1  0.50000000  0.73464568  0.27695132  1
  C  C34  1  0.50000000  0.71180443  0.61234608  1
  C  C35  1  0.50000000  0.71200678  0.94129057  1
  C  C36  1  0.50000000  0.28304121  0.30655130  1
  C  C37  1  0.50000000  0.28211864  0.64018100  1
  C  C38  1  0.50000000  0.28219517  0.97345432  1
  C  C39  1  0.50000000  0.34853410  0.30556392  1
  C  C40  1  0.50000000  0.34759028  0.63902963  1
  C  C41  1  0.50000000  0.34762972  0.97176129  1
  C  C42  1  0.50000000  0.41390269  0.30705852  1
  C  C43  1  0.50000000  0.41413452  0.63925616  1
  C  C44  1  0.50000000  0.41384779  0.97153597  1
  C  C45  1  0.50000000  0.48039690  0.64013726  1
  C  C46  1  0.50000000  0.48067640  0.96815744  1
  C  C47  1  0.50000000  0.54675517  0.64099775  1
  C  C48  1  0.50000000  0.54668494  0.96772977  1
  C  C49  1  0.50000000  0.61336071  0.63996475  1
  C  C50  1  0.50000000  0.61245038  0.96771534  1
  C  C51  1  0.50000000  0.70234453  0.30522783  1
  C  C52  1  0.50000000  0.67946548  0.63986316  1
  C  C53  1  0.50000000  0.68091722  0.97171546  1
  C  C54  1  0.50000000  0.28237600  0.02647917  1
  C  C55  1  0.50000000  0.28292469  0.35963442  1
  C  C56  1  0.50000000  0.28213362  0.69310998  1
  C  C57  1  0.50000000  0.34771419  0.02716159  1
  C  C58  1  0.50000000  0.34841107  0.36127952  1
  C  C59  1  0.50000000  0.34754415  0.69455714  1
  C  C60  1  0.50000000  0.41298415  0.02524216  1
  C  C61  1  0.50000000  0.41377638  0.36022222  1
  C  C62  1  0.50000000  0.41397511  0.69464505  1
  C  C63  1  0.50000000  0.48028878  0.69517940  1
  C  C64  1  0.50000000  0.54670698  0.69566114  1
  C  C65  1  0.50000000  0.61313420  0.69511368  1
  C  C66  1  0.50000000  0.68661993  0.02813512  1
  C  C67  1  0.50000000  0.69930607  0.36159943  1
  C  C68  1  0.50000000  0.67933884  0.69551157  1
  C  C69  1  0.50000000  0.31477065  0.05518833  1
  C  C70  1  0.50000000  0.31505124  0.38881775  1
  C  C71  1  0.50000000  0.31452546  0.72208757  1
  C  C72  1  0.50000000  0.38118736  0.05446421  1
  C  C73  1  0.50000000  0.38155153  0.38935880  1
  C  C74  1  0.50000000  0.38087747  0.72237818  1
  C  C75  1  0.50000000  0.44701263  0.72239706  1
  C  C76  1  0.50000000  0.51339777  0.72252391  1
  C  C77  1  0.50000000  0.58013474  0.72250752  1
  C  C78  1  0.50000000  0.65871009  0.06463360  1
  C  C79  1  0.50000000  0.66488599  0.38341820  1
  C  C80  1  0.50000000  0.64627780  0.72271141  1
  C  C81  1  0.50000000  0.72163319  0.05030593  1
  C  C82  1  0.50000000  0.72799588  0.39695117  1
  C  C83  1  0.50000000  0.71158455  0.72368131  1
  C  C84  1  0.50000000  0.31505277  0.11089596  1
  C  C85  1  0.50000000  0.31476165  0.44452412  1
  C  C86  1  0.50000000  0.31449484  0.77781585  1
  C  C87  1  0.50000000  0.38154301  0.11037170  1
  C  C88  1  0.50000000  0.38121757  0.44528238  1
  C  C89  1  0.50000000  0.38085011  0.77749335  1
  C  C90  1  0.50000000  0.44698960  0.77750489  1
  C  C91  1  0.50000000  0.51338335  0.77742329  1
  C  C92  1  0.50000000  0.58013379  0.77760034  1
  C  C93  1  0.50000000  0.66463967  0.11689234  1
  C  C94  1  0.50000000  0.65908253  0.43571175  1
  C  C95  1  0.50000000  0.64628038  0.77759424  1
  C  C96  1  0.50000000  0.72774177  0.10321627  1
  C  C97  1  0.50000000  0.72199259  0.44993038  1
  C  C98  1  0.50000000  0.71159983  0.77674499  1
  C  C99  1  0.50000000  0.28292777  0.14005490  1
  C  C100  1  0.50000000  0.28239953  0.47333547  1
  C  C101  1  0.50000000  0.28209094  0.80680086  1
  C  C102  1  0.50000000  0.34840971  0.13842259  1
  C  C103  1  0.50000000  0.34773639  0.47259942  1
  C  C104  1  0.50000000  0.34750654  0.80532360  1
  C  C105  1  0.50000000  0.41378358  0.13945846  1
  C  C106  1  0.50000000  0.41301195  0.47455671  1
  C  C107  1  0.50000000  0.41394115  0.80523568  1
  C  C108  1  0.50000000  0.48025552  0.80472500  1
  C  C109  1  0.50000000  0.54667350  0.80434290  1
  C  C110  1  0.50000000  0.61311078  0.80507551  1
  C  C111  1  0.50000000  0.69909078  0.13860659  1
  C  C112  1  0.50000000  0.68700000  0.47217863  1
  C  C113  1  0.50000000  0.67933056  0.80489378  1
  C  C114  1  0.50000000  0.28305317  0.19312487  1
  C  C115  1  0.50000000  0.28228742  0.52638717  1
  C  C116  1  0.50000000  0.28205286  0.85972715  1
  C  C117  1  0.50000000  0.34853545  0.19412166  1
  C  C118  1  0.50000000  0.34771763  0.52806514  1
  C  C119  1  0.50000000  0.34752890  0.86086170  1
  C  C120  1  0.50000000  0.41392126  0.19262774  1
  C  C121  1  0.50000000  0.41395063  0.52829109  1
  C  C122  1  0.50000000  0.41406666  0.86059842  1
  C  C123  1  0.50000000  0.48082048  0.53175054  1
  C  C124  1  0.50000000  0.48032091  0.85976008  1
  C  C125  1  0.50000000  0.54688745  0.53227309  1
  C  C126  1  0.50000000  0.54667043  0.85900635  1
  C  C127  1  0.50000000  0.61267409  0.53244304  1
  C  C128  1  0.50000000  0.61327683  0.86020627  1
  C  C129  1  0.50000000  0.70221643  0.19493309  1
  C  C130  1  0.50000000  0.68121460  0.52860325  1
  C  C131  1  0.50000000  0.67942369  0.86050399  1
  H  H132  1  0.50000000  0.76039748  0.20274572  1
  H  H133  1  0.50000000  0.73863158  0.54090983  1
  H  H134  1  0.50000000  0.73759343  0.86826502  1
  H  H135  1  0.50000000  0.76051305  0.29710646  1
  H  H136  1  0.50000000  0.73760182  0.63230424  1
  H  H137  1  0.50000000  0.73832692  0.95970559  1
  H  H138  1  0.50000000  0.25709063  0.28687475  1
  H  H139  1  0.50000000  0.25621838  0.62042797  1
  H  H140  1  0.50000000  0.25619842  0.95393617  1
  H  H141  1  0.50000000  0.25654142  0.04638620  1
  H  H142  1  0.50000000  0.25690857  0.37912070  1
  H  H143  1  0.50000000  0.25624190  0.71285240  1
  H  H144  1  0.50000000  0.74567454  0.02616273  1
  H  H145  1  0.50000000  0.75588259  0.38339221  1
  H  H146  1  0.50000000  0.73736732  0.70368121  1
  H  H147  1  0.50000000  0.75567492  0.11658214  1
  H  H148  1  0.50000000  0.74604047  0.47407146  1
  H  H149  1  0.50000000  0.73743432  0.79665565  1
  H  H150  1  0.50000000  0.25689375  0.12062099  1
  H  H151  1  0.50000000  0.25651045  0.45352776  1
  H  H152  1  0.50000000  0.25617368  0.78707954  1
  H  H153  1  0.50000000  0.25710583  0.21279202  1
  H  H154  1  0.50000000  0.25632910  0.54599000  1
  H  H155  1  0.50000000  0.25615641  0.87953879  1
  H  H156  1  0.50000000  0.64399706  0.20527054  1
  H  H157  1  0.50000000  0.64410468  0.29511123  1
  H  H158  1  0.50000000  0.43997573  0.28766148  1
  H  H159  1  0.50000000  0.48211791  0.01016093  1
  H  H160  1  0.50000000  0.54671595  0.00991284  1
  H  H161  1  0.50000000  0.60912587  0.00887277  1
  H  H162  1  0.50000000  0.43849168  0.04579795  1
  H  H163  1  0.50000000  0.43986751  0.37957504  1
  H  H164  1  0.50000000  0.63064578  0.05442531  1
  H  H165  1  0.50000000  0.64077717  0.35965149  1
  H  H166  1  0.50000000  0.64059752  0.14077542  1
  H  H167  1  0.50000000  0.63105530  0.44604864  1
  H  H168  1  0.50000000  0.43981095  0.11992418  1
  H  H169  1  0.50000000  0.43851737  0.45399794  1
  H  H170  1  0.50000000  0.43996155  0.21212897  1
  H  H171  1  0.50000000  0.48228969  0.48976231  1
  H  H172  1  0.50000000  0.54702873  0.49008484  1
  H  H173  1  0.50000000  0.60933707  0.49128783  1
