# generated using pymatgen
data_H16C75
_symmetry_space_group_name_H-M   'P 1'
_cell_length_a   10.00000000
_cell_length_b   41.10890000
_cell_length_c   25.93806087
_cell_angle_alpha   90.00000000
_cell_angle_beta   90.00000000
_cell_angle_gamma   90.00000000
_symmetry_Int_Tables_number   1
_chemical_formula_structural   H16C75
_chemical_formula_sum   'H32 C150'
_cell_volume   10662.85150530
_cell_formula_units_Z   2
loop_
 _symmetry_equiv_pos_site_id
 _symmetry_equiv_pos_as_xyz
  1  'x, y, z'
loop_
 _atom_site_type_symbol
 _atom_site_label
 _atom_site_symmetry_multiplicity
 _atom_site_fract_x
 _atom_site_fract_y
 _atom_site_fract_z
 _atom_site_occupancy
  C  C0  1  0.50000000  0.28757454  0.63886802  1
  C  C1  1  0.50000000  0.28885900  0.97051553  1
  C  C2  1  0.50000000  0.34796140  0.64110128  1
  C  C3  1  0.50000000  0.34885266  0.96770124  1
  C  C4  1  0.50000000  0.40879157  0.64049220  1
  C  C5  1  0.50000000  0.40765893  0.96556583  1
  C  C6  1  0.50000000  0.47306637  0.30426724  1
  C  C7  1  0.50000000  0.46895082  0.63914251  1
  C  C8  1  0.50000000  0.46898321  0.97335107  1
  C  C9  1  0.50000000  0.53273744  0.30574147  1
  C  C10  1  0.50000000  0.52901111  0.63864577  1
  C  C11  1  0.50000000  0.52958731  0.97229305  1
  C  C12  1  0.50000000  0.59249268  0.30581902  1
  C  C13  1  0.50000000  0.58944343  0.63929196  1
  C  C14  1  0.50000000  0.58994474  0.97155426  1
  C  C15  1  0.50000000  0.65149774  0.30770986  1
  C  C16  1  0.50000000  0.64968316  0.63966894  1
  C  C17  1  0.50000000  0.64982753  0.97111485  1
  C  C18  1  0.50000000  0.71018336  0.63942748  1
  C  C19  1  0.50000000  0.71060098  0.96877043  1
  C  C20  1  0.50000000  0.28758758  0.69492216  1
  C  C21  1  0.50000000  0.34808933  0.69588083  1
  C  C22  1  0.50000000  0.40881222  0.69539128  1
  C  C23  1  0.50000000  0.47031345  0.02906610  1
  C  C24  1  0.50000000  0.47307471  0.35892582  1
  C  C25  1  0.50000000  0.46902210  0.69454138  1
  C  C26  1  0.50000000  0.53058744  0.02767575  1
  C  C27  1  0.50000000  0.53230670  0.36107660  1
  C  C28  1  0.50000000  0.52911967  0.69439113  1
  C  C29  1  0.50000000  0.59052506  0.02688973  1
  C  C30  1  0.50000000  0.59206537  0.36156150  1
  C  C31  1  0.50000000  0.58935792  0.69459008  1
  C  C32  1  0.50000000  0.64945878  0.02487756  1
  C  C33  1  0.50000000  0.65108822  0.36104341  1
  C  C34  1  0.50000000  0.64949950  0.69457458  1
  C  C35  1  0.50000000  0.70985608  0.69524451  1
  C  C36  1  0.50000000  0.25846768  0.72334044  1
  C  C37  1  0.50000000  0.31761272  0.72254754  1
  C  C38  1  0.50000000  0.37837246  0.72247269  1
  C  C39  1  0.50000000  0.44260620  0.06209948  1
  C  C40  1  0.50000000  0.44354953  0.38561304  1
  C  C41  1  0.50000000  0.43902863  0.72237453  1
  C  C42  1  0.50000000  0.50095042  0.05601556  1
  C  C43  1  0.50000000  0.50212283  0.38839818  1
  C  C44  1  0.50000000  0.49916144  0.72225651  1
  C  C45  1  0.50000000  0.56086982  0.05530455  1
  C  C46  1  0.50000000  0.56183217  0.38940740  1
  C  C47  1  0.50000000  0.55910679  0.72231571  1
  C  C48  1  0.50000000  0.62082072  0.05407368  1
  C  C49  1  0.50000000  0.62169198  0.38977918  1
  C  C50  1  0.50000000  0.61936994  0.72221746  1
  C  C51  1  0.50000000  0.67983815  0.72240584  1
  C  C52  1  0.50000000  0.73919974  0.72349524  1
  C  C53  1  0.50000000  0.25846687  0.77667637  1
  C  C54  1  0.50000000  0.31761239  0.77746583  1
  C  C55  1  0.50000000  0.37837274  0.77753211  1
  C  C56  1  0.50000000  0.44356137  0.11437843  1
  C  C57  1  0.50000000  0.44259637  0.43789259  1
  C  C58  1  0.50000000  0.43902894  0.77762159  1
  C  C59  1  0.50000000  0.50213482  0.11161556  1
  C  C60  1  0.50000000  0.50093661  0.44398962  1
  C  C61  1  0.50000000  0.49916057  0.77773412  1
  C  C62  1  0.50000000  0.56183828  0.11059576  1
  C  C63  1  0.50000000  0.56086102  0.44469359  1
  C  C64  1  0.50000000  0.55910723  0.77767410  1
  C  C65  1  0.50000000  0.62169454  0.11021396  1
  C  C66  1  0.50000000  0.62081300  0.44591688  1
  C  C67  1  0.50000000  0.61937686  0.77777088  1
  C  C68  1  0.50000000  0.67984534  0.77759300  1
  C  C69  1  0.50000000  0.73920473  0.77648799  1
  C  C70  1  0.50000000  0.28758784  0.80509669  1
  C  C71  1  0.50000000  0.34809093  0.80412765  1
  C  C72  1  0.50000000  0.40881405  0.80460950  1
  C  C73  1  0.50000000  0.47308351  0.14108143  1
  C  C74  1  0.50000000  0.47029788  0.47093568  1
  C  C75  1  0.50000000  0.46902333  0.80545419  1
  C  C76  1  0.50000000  0.53231552  0.13894145  1
  C  C77  1  0.50000000  0.53057501  0.47231960  1
  C  C78  1  0.50000000  0.52911982  0.80559694  1
  C  C79  1  0.50000000  0.59206562  0.13844544  1
  C  C80  1  0.50000000  0.59051811  0.47310579  1
  C  C81  1  0.50000000  0.58936229  0.80539985  1
  C  C82  1  0.50000000  0.65109000  0.13893973  1
  C  C83  1  0.50000000  0.64945030  0.47510456  1
  C  C84  1  0.50000000  0.64950709  0.80541851  1
  C  C85  1  0.50000000  0.70986876  0.80475820  1
  C  C86  1  0.50000000  0.28884204  0.52951166  1
  C  C87  1  0.50000000  0.28758089  0.86115260  1
  C  C88  1  0.50000000  0.34884040  0.53230740  1
  C  C89  1  0.50000000  0.34796812  0.85890738  1
  C  C90  1  0.50000000  0.40764765  0.53443441  1
  C  C91  1  0.50000000  0.40879836  0.85950870  1
  C  C92  1  0.50000000  0.47306815  0.19574398  1
  C  C93  1  0.50000000  0.46896903  0.52665060  1
  C  C94  1  0.50000000  0.46895626  0.86085377  1
  C  C95  1  0.50000000  0.53273436  0.19427354  1
  C  C96  1  0.50000000  0.52957748  0.52770131  1
  C  C97  1  0.50000000  0.52901597  0.86133973  1
  C  C98  1  0.50000000  0.59248743  0.19417565  1
  C  C99  1  0.50000000  0.58994183  0.52844047  1
  C  C100  1  0.50000000  0.58944634  0.86070513  1
  C  C101  1  0.50000000  0.65149230  0.19227334  1
  C  C102  1  0.50000000  0.64982150  0.52886946  1
  C  C103  1  0.50000000  0.64969207  0.86031918  1
  C  C104  1  0.50000000  0.71058898  0.53122722  1
  C  C105  1  0.50000000  0.71019330  0.86056629  1
  C  C106  1  0.50000000  0.25941380  0.55558020  1
  C  C107  1  0.50000000  0.25879540  0.89036961  1
  C  C108  1  0.50000000  0.31854801  0.55732903  1
  C  C109  1  0.50000000  0.31809077  0.88726263  1
  C  C110  1  0.50000000  0.37786579  0.56045285  1
  C  C111  1  0.50000000  0.37810953  0.88501397  1
  C  C112  1  0.50000000  0.44342027  0.22369127  1
  C  C113  1  0.50000000  0.43842325  0.55628551  1
  C  C114  1  0.50000000  0.43893333  0.88777412  1
  C  C115  1  0.50000000  0.50305655  0.22254334  1
  C  C116  1  0.50000000  0.49897807  0.55489030  1
  C  C117  1  0.50000000  0.49913600  0.88924090  1
  C  C118  1  0.50000000  0.56259984  0.22232909  1
  C  C119  1  0.50000000  0.55952225  0.55598859  1
  C  C120  1  0.50000000  0.55934855  0.88880818  1
  C  C121  1  0.50000000  0.62248685  0.22191214  1
  C  C122  1  0.50000000  0.61973598  0.55660273  1
  C  C123  1  0.50000000  0.61958253  0.88806663  1
  C  C124  1  0.50000000  0.68051838  0.55698145  1
  C  C125  1  0.50000000  0.68009113  0.88799512  1
  C  C126  1  0.50000000  0.73985776  0.55826609  1
  C  C127  1  0.50000000  0.73969025  0.88820785  1
  C  C128  1  0.50000000  0.25878306  0.60966743  1
  C  C129  1  0.50000000  0.25942912  0.94445658  1
  C  C130  1  0.50000000  0.31808218  0.61275095  1
  C  C131  1  0.50000000  0.31855906  0.94268494  1
  C  C132  1  0.50000000  0.37810128  0.61498954  1
  C  C133  1  0.50000000  0.37787633  0.93954995  1
  C  C134  1  0.50000000  0.44342543  0.27630469  1
  C  C135  1  0.50000000  0.43892565  0.61222665  1
  C  C136  1  0.50000000  0.43843532  0.94371829  1
  C  C137  1  0.50000000  0.50305743  0.27748034  1
  C  C138  1  0.50000000  0.49912864  0.61074769  1
  C  C139  1  0.50000000  0.49898803  0.94510116  1
  C  C140  1  0.50000000  0.56260110  0.27766296  1
  C  C141  1  0.50000000  0.55934693  0.61118461  1
  C  C142  1  0.50000000  0.55952747  0.94400729  1
  C  C143  1  0.50000000  0.62248988  0.27807358  1
  C  C144  1  0.50000000  0.61957617  0.61192414  1
  C  C145  1  0.50000000  0.61973916  0.94338752  1
  C  C146  1  0.50000000  0.68008380  0.61199215  1
  C  C147  1  0.50000000  0.68052732  0.94300368  1
  C  C148  1  0.50000000  0.73968199  0.61178878  1
  C  C149  1  0.50000000  0.73987079  0.94173407  1
  H  H150  1  0.50000000  0.23507020  0.70334040  1
  H  H151  1  0.50000000  0.76258940  0.70350788  1
  H  H152  1  0.50000000  0.23506276  0.79665520  1
  H  H153  1  0.50000000  0.76260714  0.79642617  1
  H  H154  1  0.50000000  0.23639596  0.53426285  1
  H  H155  1  0.50000000  0.23517706  0.87102463  1
  H  H156  1  0.50000000  0.76300755  0.53730627  1
  H  H157  1  0.50000000  0.76297791  0.86792674  1
  H  H158  1  0.50000000  0.23517110  0.62903590  1
  H  H159  1  0.50000000  0.23641156  0.96577414  1
  H  H160  1  0.50000000  0.76296670  0.63208125  1
  H  H161  1  0.50000000  0.76301697  0.96269429  1
  H  H162  1  0.50000000  0.28975718  0.01274119  1
  H  H163  1  0.50000000  0.34979595  0.00998713  1
  H  H164  1  0.50000000  0.40317374  0.00592313  1
  H  H165  1  0.50000000  0.67510824  0.28828452  1
  H  H166  1  0.50000000  0.71167680  0.01083646  1
  H  H167  1  0.50000000  0.67257312  0.04533561  1
  H  H168  1  0.50000000  0.67448634  0.38110085  1
  H  H169  1  0.50000000  0.41803749  0.04909104  1
  H  H170  1  0.50000000  0.42033943  0.36526532  1
  H  H171  1  0.50000000  0.42034642  0.13470430  1
  H  H172  1  0.50000000  0.41803379  0.45090808  1
  H  H173  1  0.50000000  0.67448996  0.11890196  1
  H  H174  1  0.50000000  0.67256694  0.45464808  1
  H  H175  1  0.50000000  0.28972964  0.48728483  1
  H  H176  1  0.50000000  0.34977012  0.49002152  1
  H  H177  1  0.50000000  0.40317164  0.49407240  1
  H  H178  1  0.50000000  0.67510003  0.21169347  1
  H  H179  1  0.50000000  0.71168267  0.48917062  1
  H  H180  1  0.50000000  0.42007969  0.20367793  1
  H  H181  1  0.50000000  0.42008945  0.29631431  1
