# generated using pymatgen
data_H5C22
_symmetry_space_group_name_H-M   'P 1'
_cell_length_a   20.00000000
_cell_length_b   37.22700000
_cell_length_c   25.95686883
_cell_angle_alpha   90.00000000
_cell_angle_beta   90.00000000
_cell_angle_gamma   90.00000000
_symmetry_Int_Tables_number   1
_chemical_formula_structural   H5C22
_chemical_formula_sum   'H30 C132'
_cell_volume   19325.92711787
_cell_formula_units_Z   6
loop_
 _symmetry_equiv_pos_site_id
 _symmetry_equiv_pos_as_xyz
  1  'x, y, z'
loop_
 _atom_site_type_symbol
 _atom_site_label
 _atom_site_symmetry_multiplicity
 _atom_site_fract_x
 _atom_site_fract_y
 _atom_site_fract_z
 _atom_site_occupancy
  C  C0  1  0.50000000  0.31471929  0.22195490  1
  C  C1  1  0.50000000  0.31814577  0.55636301  1
  C  C2  1  0.50000000  0.31861647  0.88800478  1
  C  C3  1  0.50000000  0.38090585  0.22235058  1
  C  C4  1  0.50000000  0.38464798  0.55576106  1
  C  C5  1  0.50000000  0.38501405  0.88912271  1
  C  C6  1  0.50000000  0.44672573  0.22253453  1
  C  C7  1  0.50000000  0.45148418  0.55467347  1
  C  C8  1  0.50000000  0.45141677  0.88938247  1
  C  C9  1  0.50000000  0.51259649  0.22371639  1
  C  C10  1  0.50000000  0.51833303  0.55620116  1
  C  C11  1  0.50000000  0.51783217  0.88786064  1
  C  C12  1  0.50000000  0.58518128  0.56048859  1
  C  C13  1  0.50000000  0.58493048  0.88501512  1
  C  C14  1  0.50000000  0.65066086  0.55749765  1
  C  C15  1  0.50000000  0.65115122  0.88713336  1
  C  C16  1  0.50000000  0.71594661  0.55587767  1
  C  C17  1  0.50000000  0.71663140  0.89011774  1
  C  C18  1  0.50000000  0.31472273  0.27802661  1
  C  C19  1  0.50000000  0.31861295  0.61198041  1
  C  C20  1  0.50000000  0.31811792  0.94357914  1
  C  C21  1  0.50000000  0.38090846  0.27763406  1
  C  C22  1  0.50000000  0.38502022  0.61087295  1
  C  C23  1  0.50000000  0.38463932  0.94423538  1
  C  C24  1  0.50000000  0.44672593  0.27746147  1
  C  C25  1  0.50000000  0.45142435  0.61062355  1
  C  C26  1  0.50000000  0.45147322  0.94532987  1
  C  C27  1  0.50000000  0.51259647  0.27627945  1
  C  C28  1  0.50000000  0.51783509  0.61215677  1
  C  C29  1  0.50000000  0.51832868  0.94381433  1
  C  C30  1  0.50000000  0.58492982  0.61499582  1
  C  C31  1  0.50000000  0.58517355  0.93951773  1
  C  C32  1  0.50000000  0.65115353  0.61287022  1
  C  C33  1  0.50000000  0.65064871  0.94250579  1
  C  C34  1  0.50000000  0.71664534  0.60992251  1
  C  C35  1  0.50000000  0.71592506  0.94416310  1
  C  C36  1  0.50000000  0.28263858  0.30771696  1
  C  C37  1  0.50000000  0.28634614  0.64090957  1
  C  C38  1  0.50000000  0.28539917  0.97164710  1
  C  C39  1  0.50000000  0.34788559  0.30576898  1
  C  C40  1  0.50000000  0.35190461  0.63910854  1
  C  C41  1  0.50000000  0.35093969  0.97165077  1
  C  C42  1  0.50000000  0.41392689  0.30570657  1
  C  C43  1  0.50000000  0.41849040  0.63844797  1
  C  C44  1  0.50000000  0.41764959  0.97256912  1
  C  C45  1  0.50000000  0.47985743  0.30421057  1
  C  C46  1  0.50000000  0.48472738  0.63909333  1
  C  C47  1  0.50000000  0.48457613  0.97351704  1
  C  C48  1  0.50000000  0.55106379  0.64045530  1
  C  C49  1  0.50000000  0.55230014  0.96561146  1
  C  C50  1  0.50000000  0.61817699  0.64115841  1
  C  C51  1  0.50000000  0.61722598  0.96756665  1
  C  C52  1  0.50000000  0.68482609  0.63901250  1
  C  C53  1  0.50000000  0.68345518  0.97022259  1
  C  C54  1  0.50000000  0.28453099  0.02469010  1
  C  C55  1  0.50000000  0.28309125  0.36096702  1
  C  C56  1  0.50000000  0.28659658  0.69382792  1
  C  C57  1  0.50000000  0.34992685  0.02714448  1
  C  C58  1  0.50000000  0.34840505  0.36148975  1
  C  C59  1  0.50000000  0.35212206  0.69457873  1
  C  C60  1  0.50000000  0.41636677  0.02789479  1
  C  C61  1  0.50000000  0.41444779  0.36096043  1
  C  C62  1  0.50000000  0.41851519  0.69433095  1
  C  C63  1  0.50000000  0.48301420  0.02922467  1
  C  C64  1  0.50000000  0.47990880  0.35885241  1
  C  C65  1  0.50000000  0.48470444  0.69448315  1
  C  C66  1  0.50000000  0.55104412  0.69535341  1
  C  C67  1  0.50000000  0.61800536  0.69591360  1
  C  C68  1  0.50000000  0.68479227  0.69499892  1
  C  C69  1  0.50000000  0.31647795  0.05436829  1
  C  C70  1  0.50000000  0.31563688  0.38972246  1
  C  C71  1  0.50000000  0.31915733  0.72215151  1
  C  C72  1  0.50000000  0.38281079  0.05546551  1
  C  C73  1  0.50000000  0.38177708  0.38931717  1
  C  C74  1  0.50000000  0.38551287  0.72236141  1
  C  C75  1  0.50000000  0.44912233  0.05615184  1
  C  C76  1  0.50000000  0.44780077  0.38826362  1
  C  C77  1  0.50000000  0.45150538  0.72227437  1
  C  C78  1  0.50000000  0.51362085  0.06222730  1
  C  C79  1  0.50000000  0.51256676  0.38551243  1
  C  C80  1  0.50000000  0.51775750  0.72236478  1
  C  C81  1  0.50000000  0.58460131  0.72248607  1
  C  C82  1  0.50000000  0.65163718  0.72257573  1
  C  C83  1  0.50000000  0.71695391  0.72335563  1
  C  C84  1  0.50000000  0.31563438  0.11026225  1
  C  C85  1  0.50000000  0.31648864  0.44561769  1
  C  C86  1  0.50000000  0.31915369  0.77784215  1
  C  C87  1  0.50000000  0.38177025  0.11067307  1
  C  C88  1  0.50000000  0.38282243  0.44452141  1
  C  C89  1  0.50000000  0.38550904  0.77764373  1
  C  C90  1  0.50000000  0.44778926  0.11173347  1
  C  C91  1  0.50000000  0.44913422  0.44384201  1
  C  C92  1  0.50000000  0.45151382  0.77773789  1
  C  C93  1  0.50000000  0.51255280  0.11447944  1
  C  C94  1  0.50000000  0.51364329  0.43776518  1
  C  C95  1  0.50000000  0.51776069  0.77764846  1
  C  C96  1  0.50000000  0.58459570  0.77752415  1
  C  C97  1  0.50000000  0.65163433  0.77743671  1
  C  C98  1  0.50000000  0.71695958  0.77664542  1
  C  C99  1  0.50000000  0.28308499  0.13900618  1
  C  C100  1  0.50000000  0.28454089  0.47529430  1
  C  C101  1  0.50000000  0.28659909  0.80619193  1
  C  C102  1  0.50000000  0.34840259  0.13849838  1
  C  C103  1  0.50000000  0.34994154  0.47284129  1
  C  C104  1  0.50000000  0.35212129  0.80541945  1
  C  C105  1  0.50000000  0.41443967  0.13903435  1
  C  C106  1  0.50000000  0.41637989  0.47210025  1
  C  C107  1  0.50000000  0.41851564  0.80566599  1
  C  C108  1  0.50000000  0.47989684  0.14113977  1
  C  C109  1  0.50000000  0.48303046  0.47076937  1
  C  C110  1  0.50000000  0.48469859  0.80552242  1
  C  C111  1  0.50000000  0.55103997  0.80466637  1
  C  C112  1  0.50000000  0.61801283  0.80409359  1
  C  C113  1  0.50000000  0.68479568  0.80501164  1
  C  C114  1  0.50000000  0.28263362  0.19225612  1
  C  C115  1  0.50000000  0.28541191  0.52832456  1
  C  C116  1  0.50000000  0.28636398  0.85911757  1
  C  C117  1  0.50000000  0.34788399  0.19421714  1
  C  C118  1  0.50000000  0.35096210  0.52832302  1
  C  C119  1  0.50000000  0.35190841  0.86087861  1
  C  C120  1  0.50000000  0.41392526  0.19428455  1
  C  C121  1  0.50000000  0.41765917  0.52742961  1
  C  C122  1  0.50000000  0.41848671  0.86156110  1
  C  C123  1  0.50000000  0.47985494  0.19578643  1
  C  C124  1  0.50000000  0.48458700  0.52648349  1
  C  C125  1  0.50000000  0.48472661  0.86092178  1
  C  C126  1  0.50000000  0.55230709  0.53440900  1
  C  C127  1  0.50000000  0.55106459  0.85955156  1
  C  C128  1  0.50000000  0.61723506  0.53243598  1
  C  C129  1  0.50000000  0.61817054  0.85884712  1
  C  C130  1  0.50000000  0.68347942  0.52979750  1
  C  C131  1  0.50000000  0.68482713  0.86100224  1
  H  H132  1  0.50000000  0.74132704  0.53450648  1
  H  H133  1  0.50000000  0.74274193  0.87083400  1
  H  H134  1  0.50000000  0.74274497  0.62924076  1
  H  H135  1  0.50000000  0.74129883  0.96554283  1
  H  H136  1  0.50000000  0.25654410  0.28832764  1
  H  H137  1  0.50000000  0.26039089  0.62130751  1
  H  H138  1  0.50000000  0.25985505  0.95095698  1
  H  H139  1  0.50000000  0.25836440  0.04381358  1
  H  H140  1  0.50000000  0.25727850  0.38110003  1
  H  H141  1  0.50000000  0.26078844  0.71383747  1
  H  H142  1  0.50000000  0.74278778  0.70333696  1
  H  H143  1  0.50000000  0.74278892  0.79666332  1
  H  H144  1  0.50000000  0.25727007  0.11886933  1
  H  H145  1  0.50000000  0.25838336  0.45614293  1
  H  H146  1  0.50000000  0.26078292  0.78616805  1
  H  H147  1  0.50000000  0.25653930  0.21164503  1
  H  H148  1  0.50000000  0.25987707  0.54904579  1
  H  H149  1  0.50000000  0.26039356  0.87868645  1
  H  H150  1  0.50000000  0.53836093  0.20368362  1
  H  H151  1  0.50000000  0.53836035  0.29632213  1
  H  H152  1  0.50000000  0.55723440  0.00596063  1
  H  H153  1  0.50000000  0.61618094  0.00980817  1
  H  H154  1  0.50000000  0.68254890  0.01239264  1
  H  H155  1  0.50000000  0.54074560  0.04910222  1
  H  H156  1  0.50000000  0.53824754  0.36524705  1
  H  H157  1  0.50000000  0.53824291  0.13472351  1
  H  H158  1  0.50000000  0.54076992  0.45088544  1
  H  H159  1  0.50000000  0.55721336  0.49405801  1
  H  H160  1  0.50000000  0.61618409  0.49019507  1
  H  H161  1  0.50000000  0.68260214  0.48762565  1
