# generated using pymatgen
data_H14C69
_symmetry_space_group_name_H-M   'P 1'
_cell_length_a   20.00000000
_cell_length_b   37.22700000
_cell_length_c   25.79586368
_cell_angle_alpha   90.00000000
_cell_angle_beta   90.00000000
_cell_angle_gamma   90.00000000
_symmetry_Int_Tables_number   1
_chemical_formula_structural   H14C69
_chemical_formula_sum   'H28 C138'
_cell_volume   19206.05234560
_cell_formula_units_Z   2
loop_
 _symmetry_equiv_pos_site_id
 _symmetry_equiv_pos_as_xyz
  1  'x, y, z'
loop_
 _atom_site_type_symbol
 _atom_site_label
 _atom_site_symmetry_multiplicity
 _atom_site_fract_x
 _atom_site_fract_y
 _atom_site_fract_z
 _atom_site_occupancy
  C  C0  1  0.50000000  0.31629128  0.55451262  1
  C  C1  1  0.50000000  0.31673158  0.88861953  1
  C  C2  1  0.50000000  0.38301773  0.55517793  1
  C  C3  1  0.50000000  0.38352171  0.88876578  1
  C  C4  1  0.50000000  0.45031212  0.22190719  1
  C  C5  1  0.50000000  0.45026030  0.55568536  1
  C  C6  1  0.50000000  0.45009689  0.88881526  1
  C  C7  1  0.50000000  0.51679807  0.22227912  1
  C  C8  1  0.50000000  0.51660864  0.55587017  1
  C  C9  1  0.50000000  0.51645772  0.88884228  1
  C  C10  1  0.50000000  0.58293687  0.22225145  1
  C  C11  1  0.50000000  0.58273913  0.55581673  1
  C  C12  1  0.50000000  0.58280921  0.88864068  1
  C  C13  1  0.50000000  0.64938218  0.22193533  1
  C  C14  1  0.50000000  0.64893192  0.55596811  1
  C  C15  1  0.50000000  0.64925018  0.88854099  1
  C  C16  1  0.50000000  0.71487050  0.55609892  1
  C  C17  1  0.50000000  0.71503957  0.89065244  1
  C  C18  1  0.50000000  0.31672299  0.61140368  1
  C  C19  1  0.50000000  0.31631248  0.94550134  1
  C  C20  1  0.50000000  0.38352182  0.61126062  1
  C  C21  1  0.50000000  0.38301758  0.94484999  1
  C  C22  1  0.50000000  0.45030851  0.27810659  1
  C  C23  1  0.50000000  0.45009658  0.61119215  1
  C  C24  1  0.50000000  0.45026297  0.94431966  1
  C  C25  1  0.50000000  0.51679501  0.27770885  1
  C  C26  1  0.50000000  0.51645777  0.61115126  1
  C  C27  1  0.50000000  0.51660769  0.94412575  1
  C  C28  1  0.50000000  0.58293496  0.27772772  1
  C  C29  1  0.50000000  0.58281225  0.61133694  1
  C  C30  1  0.50000000  0.58274069  0.94416600  1
  C  C31  1  0.50000000  0.64938293  0.27806871  1
  C  C32  1  0.50000000  0.64926102  0.61143388  1
  C  C33  1  0.50000000  0.64892641  0.94400811  1
  C  C34  1  0.50000000  0.71507023  0.60931580  1
  C  C35  1  0.50000000  0.71484746  0.94384924  1
  C  C36  1  0.50000000  0.28468337  0.63997761  1
  C  C37  1  0.50000000  0.28531722  0.97454997  1
  C  C38  1  0.50000000  0.35007787  0.63875777  1
  C  C39  1  0.50000000  0.35054307  0.97083658  1
  C  C40  1  0.50000000  0.41795434  0.30682026  1
  C  C41  1  0.50000000  0.41642941  0.63873242  1
  C  C42  1  0.50000000  0.41728794  0.97257599  1
  C  C43  1  0.50000000  0.48340653  0.30563481  1
  C  C44  1  0.50000000  0.48302122  0.63882484  1
  C  C45  1  0.50000000  0.48342638  0.97204034  1
  C  C46  1  0.50000000  0.54987862  0.30543449  1
  C  C47  1  0.50000000  0.54962845  0.63897887  1
  C  C48  1  0.50000000  0.54979924  0.97189433  1
  C  C49  1  0.50000000  0.61630696  0.30567582  1
  C  C50  1  0.50000000  0.61596658  0.63926710  1
  C  C51  1  0.50000000  0.61599444  0.97206229  1
  C  C52  1  0.50000000  0.68172450  0.30652363  1
  C  C53  1  0.50000000  0.68254504  0.63854878  1
  C  C54  1  0.50000000  0.68199670  0.97200804  1
  C  C55  1  0.50000000  0.28482661  0.69359387  1
  C  C56  1  0.50000000  0.35022919  0.69434790  1
  C  C57  1  0.50000000  0.41853606  0.02647440  1
  C  C58  1  0.50000000  0.41798668  0.36028297  1
  C  C59  1  0.50000000  0.41655928  0.69446168  1
  C  C60  1  0.50000000  0.48372066  0.02748509  1
  C  C61  1  0.50000000  0.48343338  0.36124724  1
  C  C62  1  0.50000000  0.48305478  0.69457667  1
  C  C63  1  0.50000000  0.54995551  0.02761614  1
  C  C64  1  0.50000000  0.54992559  0.36142311  1
  C  C65  1  0.50000000  0.54960674  0.69452594  1
  C  C66  1  0.50000000  0.61622978  0.02742511  1
  C  C67  1  0.50000000  0.61637543  0.36125762  1
  C  C68  1  0.50000000  0.61596655  0.69447130  1
  C  C69  1  0.50000000  0.68160873  0.02648983  1
  C  C70  1  0.50000000  0.68177208  0.36006704  1
  C  C71  1  0.50000000  0.68250305  0.69444862  1
  C  C72  1  0.50000000  0.31709507  0.72193229  1
  C  C73  1  0.50000000  0.38352808  0.72222267  1
  C  C74  1  0.50000000  0.45059449  0.05488847  1
  C  C75  1  0.50000000  0.45038111  0.38886992  1
  C  C76  1  0.50000000  0.44981192  0.72223211  1
  C  C77  1  0.50000000  0.51691487  0.05544177  1
  C  C78  1  0.50000000  0.51681303  0.38915074  1
  C  C79  1  0.50000000  0.51620264  0.72224167  1
  C  C80  1  0.50000000  0.58304120  0.05535422  1
  C  C81  1  0.50000000  0.58293473  0.38910697  1
  C  C82  1  0.50000000  0.58268731  0.72215568  1
  C  C83  1  0.50000000  0.64970905  0.05480704  1
  C  C84  1  0.50000000  0.64950855  0.38875085  1
  C  C85  1  0.50000000  0.64935524  0.72215355  1
  C  C86  1  0.50000000  0.71492189  0.72336619  1
  C  C87  1  0.50000000  0.31709753  0.77809299  1
  C  C88  1  0.50000000  0.38352997  0.77779803  1
  C  C89  1  0.50000000  0.45038504  0.11113407  1
  C  C90  1  0.50000000  0.45059536  0.44511608  1
  C  C91  1  0.50000000  0.44981022  0.77777415  1
  C  C92  1  0.50000000  0.51681942  0.11084043  1
  C  C93  1  0.50000000  0.51690749  0.44454960  1
  C  C94  1  0.50000000  0.51620088  0.77775325  1
  C  C95  1  0.50000000  0.58294019  0.11087600  1
  C  C96  1  0.50000000  0.58303322  0.44462845  1
  C  C97  1  0.50000000  0.58268467  0.77782210  1
  C  C98  1  0.50000000  0.64951592  0.11123196  1
  C  C99  1  0.50000000  0.64969987  0.44517905  1
  C  C100  1  0.50000000  0.64935040  0.77781608  1
  C  C101  1  0.50000000  0.71491271  0.77664847  1
  C  C102  1  0.50000000  0.28484577  0.80643005  1
  C  C103  1  0.50000000  0.35022802  0.80566577  1
  C  C104  1  0.50000000  0.41800364  0.13975592  1
  C  C105  1  0.50000000  0.41853031  0.47352098  1
  C  C106  1  0.50000000  0.41655636  0.80555134  1
  C  C107  1  0.50000000  0.48343998  0.13874600  1
  C  C108  1  0.50000000  0.48371787  0.47251187  1
  C  C109  1  0.50000000  0.48305362  0.80542537  1
  C  C110  1  0.50000000  0.54993027  0.13855958  1
  C  C111  1  0.50000000  0.54994696  0.47236740  1
  C  C112  1  0.50000000  0.54960702  0.80546044  1
  C  C113  1  0.50000000  0.61638060  0.13872307  1
  C  C114  1  0.50000000  0.61622189  0.47255883  1
  C  C115  1  0.50000000  0.61596220  0.80550240  1
  C  C116  1  0.50000000  0.68176453  0.13994878  1
  C  C117  1  0.50000000  0.68160975  0.47348002  1
  C  C118  1  0.50000000  0.68248734  0.80553218  1
  C  C119  1  0.50000000  0.28529382  0.52544603  1
  C  C120  1  0.50000000  0.28469672  0.86005378  1
  C  C121  1  0.50000000  0.35053747  0.52922882  1
  C  C122  1  0.50000000  0.35008232  0.86126965  1
  C  C123  1  0.50000000  0.41796140  0.19321220  1
  C  C124  1  0.50000000  0.41728098  0.52743289  1
  C  C125  1  0.50000000  0.41642787  0.86128747  1
  C  C126  1  0.50000000  0.48340877  0.19436104  1
  C  C127  1  0.50000000  0.48342372  0.52796569  1
  C  C128  1  0.50000000  0.48301746  0.86117970  1
  C  C129  1  0.50000000  0.54988186  0.19454626  1
  C  C130  1  0.50000000  0.54979650  0.52809222  1
  C  C131  1  0.50000000  0.54962569  0.86100633  1
  C  C132  1  0.50000000  0.61631149  0.19430865  1
  C  C133  1  0.50000000  0.61599285  0.52792222  1
  C  C134  1  0.50000000  0.61596080  0.86070662  1
  C  C135  1  0.50000000  0.68171336  0.19347557  1
  C  C136  1  0.50000000  0.68200386  0.52796941  1
  C  C137  1  0.50000000  0.68252692  0.86141732  1
  H  H138  1  0.50000000  0.74010492  0.53421412  1
  H  H139  1  0.50000000  0.74094256  0.87075589  1
  H  H140  1  0.50000000  0.74095848  0.62926519  1
  H  H141  1  0.50000000  0.74013876  0.96556004  1
  H  H142  1  0.50000000  0.25888945  0.61967933  1
  H  H143  1  0.50000000  0.25845217  0.95741742  1
  H  H144  1  0.50000000  0.25910438  0.71389891  1
  H  H145  1  0.50000000  0.74072804  0.70323459  1
  H  H146  1  0.50000000  0.74069281  0.79685252  1
  H  H147  1  0.50000000  0.25908400  0.78625461  1
  H  H148  1  0.50000000  0.25845571  0.54271341  1
  H  H149  1  0.50000000  0.25886088  0.88022639  1
  H  H150  1  0.50000000  0.28654109  0.01697176  1
  H  H151  1  0.50000000  0.34979486  0.01327135  1
  H  H152  1  0.50000000  0.39205015  0.28688131  1
  H  H153  1  0.50000000  0.70754303  0.28632793  1
  H  H154  1  0.50000000  0.39335248  0.04780529  1
  H  H155  1  0.50000000  0.39206953  0.38025111  1
  H  H156  1  0.50000000  0.70761364  0.04618504  1
  H  H157  1  0.50000000  0.70762590  0.38016547  1
  H  H158  1  0.50000000  0.39205471  0.11990324  1
  H  H159  1  0.50000000  0.39336660  0.45213414  1
  H  H160  1  0.50000000  0.70766397  0.11999928  1
  H  H161  1  0.50000000  0.70759033  0.45369239  1
  H  H162  1  0.50000000  0.28646746  0.48298499  1
  H  H163  1  0.50000000  0.34977831  0.48681958  1
  H  H164  1  0.50000000  0.39204901  0.21313949  1
  H  H165  1  0.50000000  0.70755690  0.21358728  1
