# generated using pymatgen
data_H14C69
_symmetry_space_group_name_H-M   'P 1'
_cell_length_a   20.00000000
_cell_length_b   37.22700000
_cell_length_c   25.80629690
_cell_angle_alpha   90.00000000
_cell_angle_beta   90.00000000
_cell_angle_gamma   90.00000000
_symmetry_Int_Tables_number   1
_chemical_formula_structural   H14C69
_chemical_formula_sum   'H28 C138'
_cell_volume   19213.82029208
_cell_formula_units_Z   2
loop_
 _symmetry_equiv_pos_site_id
 _symmetry_equiv_pos_as_xyz
  1  'x, y, z'
loop_
 _atom_site_type_symbol
 _atom_site_label
 _atom_site_symmetry_multiplicity
 _atom_site_fract_x
 _atom_site_fract_y
 _atom_site_fract_z
 _atom_site_occupancy
  C  C0  1  0.50000000  0.31776027  0.22194871  1
  C  C1  1  0.50000000  0.31754539  0.55535015  1
  C  C2  1  0.50000000  0.31763353  0.88855332  1
  C  C3  1  0.50000000  0.38417013  0.22230074  1
  C  C4  1  0.50000000  0.38398394  0.55571991  1
  C  C5  1  0.50000000  0.38407635  0.88890933  1
  C  C6  1  0.50000000  0.45024160  0.22227632  1
  C  C7  1  0.50000000  0.45010425  0.55578685  1
  C  C8  1  0.50000000  0.45025937  0.88882715  1
  C  C9  1  0.50000000  0.51667354  0.22190569  1
  C  C10  1  0.50000000  0.51646347  0.55574119  1
  C  C11  1  0.50000000  0.51665342  0.88856898  1
  C  C12  1  0.50000000  0.58350890  0.55554019  1
  C  C13  1  0.50000000  0.58334168  0.88868313  1
  C  C14  1  0.50000000  0.64942116  0.55568843  1
  C  C15  1  0.50000000  0.64972889  0.88879698  1
  C  C16  1  0.50000000  0.71463788  0.55442884  1
  C  C17  1  0.50000000  0.71513790  0.89123552  1
  C  C18  1  0.50000000  0.31773462  0.27803538  1
  C  C19  1  0.50000000  0.31763178  0.61143531  1
  C  C20  1  0.50000000  0.31754669  0.94463133  1
  C  C21  1  0.50000000  0.38416940  0.27768777  1
  C  C22  1  0.50000000  0.38407808  0.61107952  1
  C  C23  1  0.50000000  0.38398353  0.94426740  1
  C  C24  1  0.50000000  0.45024325  0.27771470  1
  C  C25  1  0.50000000  0.45026296  0.61116829  1
  C  C26  1  0.50000000  0.45010151  0.94421091  1
  C  C27  1  0.50000000  0.51667867  0.27810540  1
  C  C28  1  0.50000000  0.51665827  0.61142631  1
  C  C29  1  0.50000000  0.51645847  0.94425367  1
  C  C30  1  0.50000000  0.58334287  0.61132222  1
  C  C31  1  0.50000000  0.58351098  0.94446943  1
  C  C32  1  0.50000000  0.64973195  0.61122419  1
  C  C33  1  0.50000000  0.64942640  0.94434808  1
  C  C34  1  0.50000000  0.71514811  0.60877419  1
  C  C35  1  0.50000000  0.71463535  0.94557058  1
  C  C36  1  0.50000000  0.28535415  0.30655688  1
  C  C37  1  0.50000000  0.28533318  0.64000228  1
  C  C38  1  0.50000000  0.28521992  0.97329250  1
  C  C39  1  0.50000000  0.35080399  0.30556385  1
  C  C40  1  0.50000000  0.35075029  0.63893817  1
  C  C41  1  0.50000000  0.35063262  0.97216361  1
  C  C42  1  0.50000000  0.41720590  0.30540828  1
  C  C43  1  0.50000000  0.41717636  0.63880988  1
  C  C44  1  0.50000000  0.41703087  0.97195330  1
  C  C45  1  0.50000000  0.48358745  0.30564967  1
  C  C46  1  0.50000000  0.48367900  0.63898116  1
  C  C47  1  0.50000000  0.48336627  0.97206079  1
  C  C48  1  0.50000000  0.54895170  0.30679680  1
  C  C49  1  0.50000000  0.55006141  0.63900696  1
  C  C50  1  0.50000000  0.54937659  0.97231160  1
  C  C51  1  0.50000000  0.61646715  0.63890678  1
  C  C52  1  0.50000000  0.61611679  0.97051353  1
  C  C53  1  0.50000000  0.68329250  0.63802709  1
  C  C54  1  0.50000000  0.68224643  0.97208655  1
  C  C55  1  0.50000000  0.28522119  0.02671075  1
  C  C56  1  0.50000000  0.28530997  0.35994380  1
  C  C57  1  0.50000000  0.28538474  0.69344288  1
  C  C58  1  0.50000000  0.35063845  0.02770482  1
  C  C59  1  0.50000000  0.35077380  0.36110546  1
  C  C60  1  0.50000000  0.35080379  0.69444892  1
  C  C61  1  0.50000000  0.41699362  0.02780078  1
  C  C62  1  0.50000000  0.41718467  0.36135303  1
  C  C63  1  0.50000000  0.41722937  0.69462780  1
  C  C64  1  0.50000000  0.48320366  0.02746566  1
  C  C65  1  0.50000000  0.48355582  0.36123156  1
  C  C66  1  0.50000000  0.48372546  0.69454660  1
  C  C67  1  0.50000000  0.54835098  0.02636707  1
  C  C68  1  0.50000000  0.54888304  0.36028680  1
  C  C69  1  0.50000000  0.55011612  0.69436690  1
  C  C70  1  0.50000000  0.61645048  0.69457934  1
  C  C71  1  0.50000000  0.68316210  0.69452160  1
  C  C72  1  0.50000000  0.31757350  0.05529827  1
  C  C73  1  0.50000000  0.31765050  0.38856095  1
  C  C74  1  0.50000000  0.31771414  0.72196244  1
  C  C75  1  0.50000000  0.38397582  0.05558837  1
  C  C76  1  0.50000000  0.38408415  0.38904374  1
  C  C77  1  0.50000000  0.38418566  0.72228976  1
  C  C78  1  0.50000000  0.45002978  0.05546954  1
  C  C79  1  0.50000000  0.45015231  0.38907056  1
  C  C80  1  0.50000000  0.45041029  0.72228551  1
  C  C81  1  0.50000000  0.51639495  0.05481139  1
  C  C82  1  0.50000000  0.51656930  0.38887036  1
  C  C83  1  0.50000000  0.51687257  0.72212484  1
  C  C84  1  0.50000000  0.58345781  0.72211943  1
  C  C85  1  0.50000000  0.64993863  0.72217212  1
  C  C86  1  0.50000000  0.71527761  0.72319382  1
  C  C87  1  0.50000000  0.31763710  0.11141992  1
  C  C88  1  0.50000000  0.31756758  0.44469093  1
  C  C89  1  0.50000000  0.31771909  0.77800106  1
  C  C90  1  0.50000000  0.38408060  0.11094471  1
  C  C91  1  0.50000000  0.38397318  0.44439928  1
  C  C92  1  0.50000000  0.38418688  0.77769834  1
  C  C93  1  0.50000000  0.45015162  0.11092203  1
  C  C94  1  0.50000000  0.45003324  0.44452199  1
  C  C95  1  0.50000000  0.45040906  0.77770821  1
  C  C96  1  0.50000000  0.51656985  0.11112855  1
  C  C97  1  0.50000000  0.51639830  0.44518886  1
  C  C98  1  0.50000000  0.51687105  0.77787085  1
  C  C99  1  0.50000000  0.58345719  0.77788002  1
  C  C100  1  0.50000000  0.64993550  0.77782677  1
  C  C101  1  0.50000000  0.71527438  0.77683716  1
  C  C102  1  0.50000000  0.28531999  0.14008931  1
  C  C103  1  0.50000000  0.28520274  0.47326005  1
  C  C104  1  0.50000000  0.28540234  0.80653445  1
  C  C105  1  0.50000000  0.35076620  0.13888143  1
  C  C106  1  0.50000000  0.35062425  0.47226655  1
  C  C107  1  0.50000000  0.35080557  0.80553392  1
  C  C108  1  0.50000000  0.41718332  0.13863414  1
  C  C109  1  0.50000000  0.41699624  0.47219029  1
  C  C110  1  0.50000000  0.41722826  0.80536742  1
  C  C111  1  0.50000000  0.48355441  0.13876505  1
  C  C112  1  0.50000000  0.48320622  0.47253105  1
  C  C113  1  0.50000000  0.48372325  0.80545091  1
  C  C114  1  0.50000000  0.54887723  0.13973556  1
  C  C115  1  0.50000000  0.54836377  0.47361521  1
  C  C116  1  0.50000000  0.55011420  0.80563336  1
  C  C117  1  0.50000000  0.61644924  0.80542386  1
  C  C118  1  0.50000000  0.68315494  0.80548946  1
  C  C119  1  0.50000000  0.28538494  0.19350083  1
  C  C120  1  0.50000000  0.28520829  0.52669860  1
  C  C121  1  0.50000000  0.28534668  0.85996257  1
  C  C122  1  0.50000000  0.35081131  0.19441835  1
  C  C123  1  0.50000000  0.35062996  0.52781505  1
  C  C124  1  0.50000000  0.35075051  0.86104662  1
  C  C125  1  0.50000000  0.41720545  0.19457576  1
  C  C126  1  0.50000000  0.41703353  0.52804031  1
  C  C127  1  0.50000000  0.41717380  0.86118378  1
  C  C128  1  0.50000000  0.48358645  0.19434627  1
  C  C129  1  0.50000000  0.48336993  0.52793752  1
  C  C130  1  0.50000000  0.48367506  0.86101362  1
  C  C131  1  0.50000000  0.54893998  0.19321646  1
  C  C132  1  0.50000000  0.54938425  0.52767887  1
  C  C133  1  0.50000000  0.55005966  0.86099619  1
  C  C134  1  0.50000000  0.61611654  0.52951778  1
  C  C135  1  0.50000000  0.61646456  0.86109905  1
  C  C136  1  0.50000000  0.68223240  0.52795860  1
  C  C137  1  0.50000000  0.68328343  0.86197888  1
  H  H138  1  0.50000000  0.74000935  0.53290661  1
  H  H139  1  0.50000000  0.74126042  0.87190824  1
  H  H140  1  0.50000000  0.74124396  0.62819819  1
  H  H141  1  0.50000000  0.74003373  0.96703130  1
  H  H142  1  0.50000000  0.25960774  0.28628355  1
  H  H143  1  0.50000000  0.25953637  0.61985744  1
  H  H144  1  0.50000000  0.25938123  0.95328606  1
  H  H145  1  0.50000000  0.25938643  0.04677632  1
  H  H146  1  0.50000000  0.25951577  0.38010271  1
  H  H147  1  0.50000000  0.25960672  0.71361356  1
  H  H148  1  0.50000000  0.74110908  0.70310592  1
  H  H149  1  0.50000000  0.74109533  0.79696004  1
  H  H150  1  0.50000000  0.25947858  0.12004778  1
  H  H151  1  0.50000000  0.25940117  0.45310025  1
  H  H152  1  0.50000000  0.25959927  0.78644773  1
  H  H153  1  0.50000000  0.25959443  0.21363186  1
  H  H154  1  0.50000000  0.25940271  0.54682431  1
  H  H155  1  0.50000000  0.25951115  0.87998628  1
  H  H156  1  0.50000000  0.57480842  0.28679421  1
  H  H157  1  0.50000000  0.61696925  0.01288686  1
  H  H158  1  0.50000000  0.68172678  0.01456992  1
  H  H159  1  0.50000000  0.57366800  0.04743463  1
  H  H160  1  0.50000000  0.57475080  0.38030487  1
  H  H161  1  0.50000000  0.57478099  0.11982357  1
  H  H162  1  0.50000000  0.57365400  0.45244964  1
  H  H163  1  0.50000000  0.57480112  0.21319863  1
  H  H164  1  0.50000000  0.61696373  0.48715309  1
  H  H165  1  0.50000000  0.68166523  0.48550329  1
