# generated using pymatgen
data_H7C36
_symmetry_space_group_name_H-M   'P 1'
_cell_length_a   20.00000000
_cell_length_b   40.19450000
_cell_length_c   25.78985641
_cell_angle_alpha   90.00000000
_cell_angle_beta   90.00000000
_cell_angle_gamma   90.00000000
_symmetry_Int_Tables_number   1
_chemical_formula_structural   H7C36
_chemical_formula_sum   'H28 C144'
_cell_volume   20732.20766865
_cell_formula_units_Z   4
loop_
 _symmetry_equiv_pos_site_id
 _symmetry_equiv_pos_as_xyz
  1  'x, y, z'
loop_
 _atom_site_type_symbol
 _atom_site_label
 _atom_site_symmetry_multiplicity
 _atom_site_fract_x
 _atom_site_fract_y
 _atom_site_fract_z
 _atom_site_occupancy
  C  C0  1  0.50000000  0.28533200  0.60942772  1
  C  C1  1  0.50000000  0.28553485  0.77676715  1
  C  C2  1  0.50000000  0.28564108  0.94393360  1
  C  C3  1  0.50000000  0.31642658  0.13989688  1
  C  C4  1  0.50000000  0.31548529  0.63866390  1
  C  C5  1  0.50000000  0.31633838  0.30667960  1
  C  C6  1  0.50000000  0.31559445  0.80567958  1
  C  C7  1  0.50000000  0.31637046  0.47354415  1
  C  C8  1  0.50000000  0.31610066  0.97210269  1
  C  C9  1  0.50000000  0.28549574  0.55621828  1
  C  C10  1  0.50000000  0.28552067  0.72350681  1
  C  C11  1  0.50000000  0.28546129  0.89075334  1
  C  C12  1  0.50000000  0.34627938  0.11121055  1
  C  C13  1  0.50000000  0.34631721  0.61151952  1
  C  C14  1  0.50000000  0.34626214  0.27809853  1
  C  C15  1  0.50000000  0.34628509  0.77789655  1
  C  C16  1  0.50000000  0.34595979  0.44527219  1
  C  C17  1  0.50000000  0.34672411  0.94406555  1
  C  C18  1  0.50000000  0.37690818  0.13874088  1
  C  C19  1  0.50000000  0.37714403  0.63934777  1
  C  C20  1  0.50000000  0.37687432  0.30571560  1
  C  C21  1  0.50000000  0.37718510  0.80555647  1
  C  C22  1  0.50000000  0.37694687  0.47266031  1
  C  C23  1  0.50000000  0.37723155  0.97205070  1
  C  C24  1  0.50000000  0.31653358  0.02656922  1
  C  C25  1  0.50000000  0.31595902  0.52802028  1
  C  C26  1  0.50000000  0.31646754  0.19337140  1
  C  C27  1  0.50000000  0.31554996  0.69450022  1
  C  C28  1  0.50000000  0.31630337  0.36018226  1
  C  C29  1  0.50000000  0.31558741  0.86149278  1
  C  C30  1  0.50000000  0.34612149  0.05486829  1
  C  C31  1  0.50000000  0.34660303  0.55603335  1
  C  C32  1  0.50000000  0.34635175  0.22192912  1
  C  C33  1  0.50000000  0.34626507  0.72221991  1
  C  C34  1  0.50000000  0.34614928  0.38886824  1
  C  C35  1  0.50000000  0.34642118  0.88859223  1
  C  C36  1  0.50000000  0.40786077  0.11088422  1
  C  C37  1  0.50000000  0.40787365  0.61143423  1
  C  C38  1  0.50000000  0.40779966  0.27779028  1
  C  C39  1  0.50000000  0.40797225  0.77778558  1
  C  C40  1  0.50000000  0.40768709  0.44469423  1
  C  C41  1  0.50000000  0.40801049  0.94411455  1
  C  C42  1  0.50000000  0.43843274  0.13857336  1
  C  C43  1  0.50000000  0.43857615  0.63908411  1
  C  C44  1  0.50000000  0.43840150  0.30550135  1
  C  C45  1  0.50000000  0.43861574  0.80538474  1
  C  C46  1  0.50000000  0.43832548  0.47246282  1
  C  C47  1  0.50000000  0.43853166  0.97182577  1
  C  C48  1  0.50000000  0.37707985  0.02742042  1
  C  C49  1  0.50000000  0.37712258  0.52801459  1
  C  C50  1  0.50000000  0.37696144  0.19433780  1
  C  C51  1  0.50000000  0.37715700  0.69452900  1
  C  C52  1  0.50000000  0.37679894  0.36131495  1
  C  C53  1  0.50000000  0.37721783  0.86072769  1
  C  C54  1  0.50000000  0.40781048  0.05539411  1
  C  C55  1  0.50000000  0.40791912  0.55594835  1
  C  C56  1  0.50000000  0.40784452  0.22229665  1
  C  C57  1  0.50000000  0.40795818  0.72227595  1
  C  C58  1  0.50000000  0.40775323  0.38917862  1
  C  C59  1  0.50000000  0.40794682  0.88861830  1
  C  C60  1  0.50000000  0.46909940  0.11085149  1
  C  C61  1  0.50000000  0.46925563  0.61128492  1
  C  C62  1  0.50000000  0.46904969  0.27776472  1
  C  C63  1  0.50000000  0.46940822  0.77763821  1
  C  C64  1  0.50000000  0.46893272  0.44463936  1
  C  C65  1  0.50000000  0.46920016  0.94398543  1
  C  C66  1  0.50000000  0.50002608  0.13872849  1
  C  C67  1  0.50000000  0.50015595  0.63904281  1
  C  C68  1  0.50000000  0.49995881  0.30572350  1
  C  C69  1  0.50000000  0.50018951  0.80534021  1
  C  C70  1  0.50000000  0.49967630  0.47264834  1
  C  C71  1  0.50000000  0.49992239  0.97192291  1
  C  C72  1  0.50000000  0.43844039  0.02760190  1
  C  C73  1  0.50000000  0.43844479  0.52823092  1
  C  C74  1  0.50000000  0.43845525  0.19457024  1
  C  C75  1  0.50000000  0.43859470  0.69463551  1
  C  C76  1  0.50000000  0.43833599  0.36150241  1
  C  C77  1  0.50000000  0.43861989  0.86092862  1
  C  C78  1  0.50000000  0.46904638  0.05544792  1
  C  C79  1  0.50000000  0.46914739  0.55601971  1
  C  C80  1  0.50000000  0.46908029  0.22229280  1
  C  C81  1  0.50000000  0.46940495  0.72234653  1
  C  C82  1  0.50000000  0.46899392  0.38923223  1
  C  C83  1  0.50000000  0.46928850  0.88871666  1
  C  C84  1  0.50000000  0.53064988  0.11106426  1
  C  C85  1  0.50000000  0.53067729  0.61143961  1
  C  C86  1  0.50000000  0.53059343  0.27816006  1
  C  C87  1  0.50000000  0.53086050  0.77774259  1
  C  C88  1  0.50000000  0.53038778  0.44526542  1
  C  C89  1  0.50000000  0.53054095  0.94406290  1
  C  C90  1  0.50000000  0.56057718  0.13981782  1
  C  C91  1  0.50000000  0.56165464  0.63903885  1
  C  C92  1  0.50000000  0.56052326  0.30690324  1
  C  C93  1  0.50000000  0.56165021  0.80553728  1
  C  C94  1  0.50000000  0.56008926  0.47366653  1
  C  C95  1  0.50000000  0.56106143  0.97221321  1
  C  C96  1  0.50000000  0.49977273  0.02739875  1
  C  C97  1  0.50000000  0.49988544  0.52809116  1
  C  C98  1  0.50000000  0.50000514  0.19436426  1
  C  C99  1  0.50000000  0.50018472  0.69461088  1
  C  C100  1  0.50000000  0.49991798  0.36134969  1
  C  C101  1  0.50000000  0.50016326  0.86091102  1
  C  C102  1  0.50000000  0.53049960  0.05478146  1
  C  C103  1  0.50000000  0.53054600  0.55585406  1
  C  C104  1  0.50000000  0.53061516  0.22195798  1
  C  C105  1  0.50000000  0.53087178  0.72216295  1
  C  C106  1  0.50000000  0.53051225  0.38899673  1
  C  C107  1  0.50000000  0.53067714  0.88847143  1
  C  C108  1  0.50000000  0.59246311  0.61138871  1
  C  C109  1  0.50000000  0.59248984  0.77778645  1
  C  C110  1  0.50000000  0.59264132  0.94424566  1
  C  C111  1  0.50000000  0.62314305  0.63903189  1
  C  C112  1  0.50000000  0.62305704  0.80523654  1
  C  C113  1  0.50000000  0.62288847  0.97009133  1
  C  C114  1  0.50000000  0.56014983  0.02622937  1
  C  C115  1  0.50000000  0.56109611  0.52766892  1
  C  C116  1  0.50000000  0.56055764  0.19326955  1
  C  C117  1  0.50000000  0.56166714  0.69432972  1
  C  C118  1  0.50000000  0.56045898  0.36034549  1
  C  C119  1  0.50000000  0.56162355  0.86081461  1
  C  C120  1  0.50000000  0.59272319  0.55556259  1
  C  C121  1  0.50000000  0.59250730  0.72206571  1
  C  C122  1  0.50000000  0.59240400  0.88844584  1
  C  C123  1  0.50000000  0.65401839  0.61155288  1
  C  C124  1  0.50000000  0.65408267  0.77769159  1
  C  C125  1  0.50000000  0.65369647  0.94380810  1
  C  C126  1  0.50000000  0.68504705  0.63841626  1
  C  C127  1  0.50000000  0.68483449  0.80525680  1
  C  C128  1  0.50000000  0.68407414  0.97149219  1
  C  C129  1  0.50000000  0.62299928  0.52971004  1
  C  C130  1  0.50000000  0.62308634  0.69459950  1
  C  C131  1  0.50000000  0.62306691  0.86079996  1
  C  C132  1  0.50000000  0.65384648  0.55605721  1
  C  C133  1  0.50000000  0.65410224  0.72213571  1
  C  C134  1  0.50000000  0.65390755  0.88833585  1
  C  C135  1  0.50000000  0.71467674  0.60948870  1
  C  C136  1  0.50000000  0.71464670  0.77680284  1
  C  C137  1  0.50000000  0.71410348  0.94495788  1
  C  C138  1  0.50000000  0.68432747  0.52859170  1
  C  C139  1  0.50000000  0.68486800  0.69469497  1
  C  C140  1  0.50000000  0.68496101  0.86157200  1
  C  C141  1  0.50000000  0.71435471  0.55516490  1
  C  C142  1  0.50000000  0.71465523  0.72321241  1
  C  C143  1  0.50000000  0.71451192  0.89065026  1
  H  H144  1  0.50000000  0.26138165  0.62948675  1
  H  H145  1  0.50000000  0.26158794  0.79684487  1
  H  H146  1  0.50000000  0.26213924  0.96547194  1
  H  H147  1  0.50000000  0.26203938  0.53450829  1
  H  H148  1  0.50000000  0.26153891  0.70355372  1
  H  H149  1  0.50000000  0.26147027  0.87084930  1
  H  H150  1  0.50000000  0.73872167  0.62930323  1
  H  H151  1  0.50000000  0.73854815  0.79694370  1
  H  H152  1  0.50000000  0.73774618  0.96609444  1
  H  H153  1  0.50000000  0.73794322  0.53379875  1
  H  H154  1  0.50000000  0.73856121  0.70310311  1
  H  H155  1  0.50000000  0.73861658  0.87102930  1
  H  H156  1  0.50000000  0.68382797  0.48611810  1
  H  H157  1  0.50000000  0.29241297  0.12006291  1
  H  H158  1  0.50000000  0.29237933  0.28670734  1
  H  H159  1  0.50000000  0.29233994  0.45365641  1
  H  H160  1  0.50000000  0.29244963  0.04628524  1
  H  H161  1  0.50000000  0.29252280  0.21335241  1
  H  H162  1  0.50000000  0.29231724  0.38011323  1
  H  H163  1  0.50000000  0.68336065  0.01398635  1
  H  H164  1  0.50000000  0.62411517  0.48731023  1
  H  H165  1  0.50000000  0.58469432  0.12021856  1
  H  H166  1  0.50000000  0.58454903  0.28709431  1
  H  H167  1  0.50000000  0.58348170  0.45236545  1
  H  H168  1  0.50000000  0.62399264  0.01244579  1
  H  H169  1  0.50000000  0.58365906  0.04719262  1
  H  H170  1  0.50000000  0.58453677  0.21322589  1
  H  H171  1  0.50000000  0.58447841  0.38022144  1
