# generated using pymatgen
data_H20C69
_symmetry_space_group_name_H-M   'P 1'
_cell_length_a   20.00000000
_cell_length_b   37.22700000
_cell_length_c   25.90546857
_cell_angle_alpha   90.00000000
_cell_angle_beta   90.00000000
_cell_angle_gamma   90.00000000
_symmetry_Int_Tables_number   1
_chemical_formula_structural   H20C69
_chemical_formula_sum   'H40 C138'
_cell_volume   19287.65756862
_cell_formula_units_Z   2
loop_
 _symmetry_equiv_pos_site_id
 _symmetry_equiv_pos_as_xyz
  1  'x, y, z'
loop_
 _atom_site_type_symbol
 _atom_site_label
 _atom_site_symmetry_multiplicity
 _atom_site_fract_x
 _atom_site_fract_y
 _atom_site_fract_z
 _atom_site_occupancy
  C  C0  1  0.50000000  0.31784233  0.22210760  1
  C  C1  1  0.50000000  0.31738659  0.55543794  1
  C  C2  1  0.50000000  0.31731421  0.88875191  1
  C  C3  1  0.50000000  0.38411982  0.22240745  1
  C  C4  1  0.50000000  0.38367863  0.55601387  1
  C  C5  1  0.50000000  0.38365437  0.88887417  1
  C  C6  1  0.50000000  0.45037934  0.22201750  1
  C  C7  1  0.50000000  0.44989639  0.55622730  1
  C  C8  1  0.50000000  0.44986944  0.88840026  1
  C  C9  1  0.50000000  0.51701727  0.55669247  1
  C  C10  1  0.50000000  0.51648228  0.88795063  1
  C  C11  1  0.50000000  0.58302843  0.55823005  1
  C  C12  1  0.50000000  0.58289320  0.88673438  1
  C  C13  1  0.50000000  0.64915195  0.55675883  1
  C  C14  1  0.50000000  0.64940888  0.88750417  1
  C  C15  1  0.50000000  0.71410715  0.22354976  1
  C  C16  1  0.50000000  0.71588015  0.55872039  1
  C  C17  1  0.50000000  0.71545505  0.88877273  1
  C  C18  1  0.50000000  0.31784213  0.27787457  1
  C  C19  1  0.50000000  0.31732148  0.61122270  1
  C  C20  1  0.50000000  0.31737777  0.94454263  1
  C  C21  1  0.50000000  0.38411671  0.27757103  1
  C  C22  1  0.50000000  0.38366204  0.61113017  1
  C  C23  1  0.50000000  0.38366250  0.94399687  1
  C  C24  1  0.50000000  0.45037200  0.27795969  1
  C  C25  1  0.50000000  0.44988318  0.61161976  1
  C  C26  1  0.50000000  0.44988153  0.94379328  1
  C  C27  1  0.50000000  0.51649170  0.61206286  1
  C  C28  1  0.50000000  0.51700753  0.94331987  1
  C  C29  1  0.50000000  0.58289570  0.61326558  1
  C  C30  1  0.50000000  0.58302637  0.94177533  1
  C  C31  1  0.50000000  0.64941257  0.61248977  1
  C  C32  1  0.50000000  0.64914577  0.94323881  1
  C  C33  1  0.50000000  0.71414106  0.27640072  1
  C  C34  1  0.50000000  0.71545649  0.61122355  1
  C  C35  1  0.50000000  0.71586929  0.94127916  1
  C  C36  1  0.50000000  0.28539509  0.30669910  1
  C  C37  1  0.50000000  0.28493118  0.64008546  1
  C  C38  1  0.50000000  0.28502863  0.97355158  1
  C  C39  1  0.50000000  0.35086943  0.30553179  1
  C  C40  1  0.50000000  0.35039222  0.63895952  1
  C  C41  1  0.50000000  0.35048835  0.97209957  1
  C  C42  1  0.50000000  0.41734863  0.30565180  1
  C  C43  1  0.50000000  0.41684089  0.63913064  1
  C  C44  1  0.50000000  0.41689502  0.97185568  1
  C  C45  1  0.50000000  0.48267306  0.30702625  1
  C  C46  1  0.50000000  0.48315722  0.63949780  1
  C  C47  1  0.50000000  0.48303794  0.97172463  1
  C  C48  1  0.50000000  0.54952543  0.64003090  1
  C  C49  1  0.50000000  0.55009201  0.96852315  1
  C  C50  1  0.50000000  0.61621434  0.64021210  1
  C  C51  1  0.50000000  0.61619586  0.96838169  1
  C  C52  1  0.50000000  0.68275489  0.30768811  1
  C  C53  1  0.50000000  0.68246094  0.63990036  1
  C  C54  1  0.50000000  0.68345667  0.97116117  1
  C  C55  1  0.50000000  0.28508694  0.02666289  1
  C  C56  1  0.50000000  0.28530394  0.35975431  1
  C  C57  1  0.50000000  0.28494796  0.69320290  1
  C  C58  1  0.50000000  0.35053406  0.02769032  1
  C  C59  1  0.50000000  0.35078902  0.36121994  1
  C  C60  1  0.50000000  0.35038029  0.69447606  1
  C  C61  1  0.50000000  0.41688736  0.02726652  1
  C  C62  1  0.50000000  0.41729264  0.36139660  1
  C  C63  1  0.50000000  0.41679369  0.69457219  1
  C  C64  1  0.50000000  0.48213937  0.02558172  1
  C  C65  1  0.50000000  0.48259761  0.36024392  1
  C  C66  1  0.50000000  0.48308790  0.69453049  1
  C  C67  1  0.50000000  0.54947195  0.69517612  1
  C  C68  1  0.50000000  0.61607770  0.69520444  1
  C  C69  1  0.50000000  0.68467462  0.02461839  1
  C  C70  1  0.50000000  0.68315586  0.36063405  1
  C  C71  1  0.50000000  0.68249722  0.69476877  1
  C  C72  1  0.50000000  0.31752588  0.05547979  1
  C  C73  1  0.50000000  0.31765997  0.38874534  1
  C  C74  1  0.50000000  0.31731412  0.72209297  1
  C  C75  1  0.50000000  0.38381304  0.05547771  1
  C  C76  1  0.50000000  0.38394823  0.38929385  1
  C  C77  1  0.50000000  0.38363168  0.72241397  1
  C  C78  1  0.50000000  0.45015049  0.05457627  1
  C  C79  1  0.50000000  0.45027576  0.38922876  1
  C  C80  1  0.50000000  0.44986586  0.72230217  1
  C  C81  1  0.50000000  0.51629130  0.72246778  1
  C  C82  1  0.50000000  0.58273320  0.72250768  1
  C  C83  1  0.50000000  0.64927406  0.72246420  1
  C  C84  1  0.50000000  0.71579970  0.05575150  1
  C  C85  1  0.50000000  0.71492613  0.39108935  1
  C  C86  1  0.50000000  0.71512870  0.72359372  1
  C  C87  1  0.50000000  0.31765946  0.11124781  1
  C  C88  1  0.50000000  0.31752652  0.44450885  1
  C  C89  1  0.50000000  0.31730813  0.77790395  1
  C  C90  1  0.50000000  0.38394984  0.11067946  1
  C  C91  1  0.50000000  0.38380123  0.44448055  1
  C  C92  1  0.50000000  0.38362470  0.77762616  1
  C  C93  1  0.50000000  0.45028402  0.11077584  1
  C  C94  1  0.50000000  0.45014808  0.44543988  1
  C  C95  1  0.50000000  0.44986347  0.77770822  1
  C  C96  1  0.50000000  0.51628767  0.77754676  1
  C  C97  1  0.50000000  0.58273308  0.77748839  1
  C  C98  1  0.50000000  0.64927438  0.77752661  1
  C  C99  1  0.50000000  0.71484125  0.10893846  1
  C  C100  1  0.50000000  0.71584032  0.44428167  1
  C  C101  1  0.50000000  0.71512617  0.77638017  1
  C  C102  1  0.50000000  0.28529876  0.14024121  1
  C  C103  1  0.50000000  0.28509620  0.47333059  1
  C  C104  1  0.50000000  0.28493332  0.80676984  1
  C  C105  1  0.50000000  0.35079343  0.13876158  1
  C  C106  1  0.50000000  0.35053501  0.47229116  1
  C  C107  1  0.50000000  0.35036598  0.80552719  1
  C  C108  1  0.50000000  0.41729689  0.13857135  1
  C  C109  1  0.50000000  0.41688100  0.47273737  1
  C  C110  1  0.50000000  0.41678824  0.80544136  1
  C  C111  1  0.50000000  0.48261817  0.13975484  1
  C  C112  1  0.50000000  0.48212962  0.47442537  1
  C  C113  1  0.50000000  0.48308403  0.80547953  1
  C  C114  1  0.50000000  0.54947119  0.80482298  1
  C  C115  1  0.50000000  0.61607865  0.80478269  1
  C  C116  1  0.50000000  0.68305795  0.13936874  1
  C  C117  1  0.50000000  0.68469957  0.47538605  1
  C  C118  1  0.50000000  0.68249750  0.80521920  1
  C  C119  1  0.50000000  0.28538560  0.19329878  1
  C  C120  1  0.50000000  0.28503830  0.52643653  1
  C  C121  1  0.50000000  0.28491178  0.85989834  1
  C  C122  1  0.50000000  0.35087207  0.19444545  1
  C  C123  1  0.50000000  0.35050335  0.52789222  1
  C  C124  1  0.50000000  0.35038464  0.86103598  1
  C  C125  1  0.50000000  0.41734784  0.19433203  1
  C  C126  1  0.50000000  0.41691754  0.52818294  1
  C  C127  1  0.50000000  0.41683569  0.86088374  1
  C  C128  1  0.50000000  0.48269349  0.19297298  1
  C  C129  1  0.50000000  0.48304575  0.52828554  1
  C  C130  1  0.50000000  0.48314527  0.86051697  1
  C  C131  1  0.50000000  0.55009964  0.53149258  1
  C  C132  1  0.50000000  0.54952025  0.85997202  1
  C  C133  1  0.50000000  0.61619787  0.53162795  1
  C  C134  1  0.50000000  0.61621043  0.85977658  1
  C  C135  1  0.50000000  0.68268212  0.19231891  1
  C  C136  1  0.50000000  0.68346676  0.52883963  1
  C  C137  1  0.50000000  0.68246031  0.86009368  1
  H  H138  1  0.50000000  0.74027448  0.20427271  1
  H  H139  1  0.50000000  0.74177570  0.53877583  1
  H  H140  1  0.50000000  0.74112284  0.86834506  1
  H  H141  1  0.50000000  0.74031389  0.29565910  1
  H  H142  1  0.50000000  0.74110890  0.63169444  1
  H  H143  1  0.50000000  0.74177876  0.96117298  1
  H  H144  1  0.50000000  0.25953703  0.28679933  1
  H  H145  1  0.50000000  0.25901232  0.62030655  1
  H  H146  1  0.50000000  0.25910879  0.95377654  1
  H  H147  1  0.50000000  0.25922031  0.04656223  1
  H  H148  1  0.50000000  0.25937578  0.37948939  1
  H  H149  1  0.50000000  0.25905831  0.71302709  1
  H  H150  1  0.50000000  0.74238114  0.03754414  1
  H  H151  1  0.50000000  0.74075531  0.37085072  1
  H  H152  1  0.50000000  0.74089777  0.70344446  1
  H  H153  1  0.50000000  0.74064922  0.12922394  1
  H  H154  1  0.50000000  0.74240167  0.46253774  1
  H  H155  1  0.50000000  0.74089633  0.79652385  1
  H  H156  1  0.50000000  0.25937744  0.12048419  1
  H  H157  1  0.50000000  0.25922162  0.45345719  1
  H  H158  1  0.50000000  0.25904836  0.78693104  1
  H  H159  1  0.50000000  0.25953164  0.21322559  1
  H  H160  1  0.50000000  0.25911322  0.54619471  1
  H  H161  1  0.50000000  0.25899637  0.87969287  1
  H  H162  1  0.50000000  0.50861893  0.28729855  1
  H  H163  1  0.50000000  0.55147338  0.01067838  1
  H  H164  1  0.50000000  0.61504309  0.01055981  1
  H  H165  1  0.50000000  0.65652798  0.28848806  1
  H  H166  1  0.50000000  0.50756757  0.04633786  1
  H  H167  1  0.50000000  0.50853263  0.38001817  1
  H  H168  1  0.50000000  0.65902763  0.04513213  1
  H  H169  1  0.50000000  0.65706390  0.38018300  1
  H  H170  1  0.50000000  0.50855550  0.11997464  1
  H  H171  1  0.50000000  0.50758033  0.45373043  1
  H  H172  1  0.50000000  0.65696924  0.11980600  1
  H  H173  1  0.50000000  0.65904959  0.45489398  1
  H  H174  1  0.50000000  0.50862881  0.21273469  1
  H  H175  1  0.50000000  0.55146435  0.48933830  1
  H  H176  1  0.50000000  0.61504164  0.48944965  1
  H  H177  1  0.50000000  0.65645132  0.21152001  1
