# generated using pymatgen
data_H7C23
_symmetry_space_group_name_H-M   'P 1'
_cell_length_a   20.00000000
_cell_length_b   37.22700000
_cell_length_c   26.12576809
_cell_angle_alpha   90.00000000
_cell_angle_beta   90.00000000
_cell_angle_gamma   90.00000000
_symmetry_Int_Tables_number   1
_chemical_formula_structural   H7C23
_chemical_formula_sum   'H42 C138'
_cell_volume   19451.67937287
_cell_formula_units_Z   6
loop_
 _symmetry_equiv_pos_site_id
 _symmetry_equiv_pos_as_xyz
  1  'x, y, z'
loop_
 _atom_site_type_symbol
 _atom_site_label
 _atom_site_symmetry_multiplicity
 _atom_site_fract_x
 _atom_site_fract_y
 _atom_site_fract_z
 _atom_site_occupancy
  C  C0  1  0.50000000  0.30974735  0.22180596  1
  C  C1  1  0.50000000  0.31565494  0.55646064  1
  C  C2  1  0.50000000  0.31623505  0.88790724  1
  C  C3  1  0.50000000  0.37578450  0.22266310  1
  C  C4  1  0.50000000  0.38252947  0.55500712  1
  C  C5  1  0.50000000  0.38269090  0.88926971  1
  C  C6  1  0.50000000  0.44134301  0.22388607  1
  C  C7  1  0.50000000  0.44923105  0.55623166  1
  C  C8  1  0.50000000  0.44877304  0.88800534  1
  C  C9  1  0.50000000  0.51609080  0.56121115  1
  C  C10  1  0.50000000  0.51562416  0.88436082  1
  C  C11  1  0.50000000  0.58172880  0.56043374  1
  C  C12  1  0.50000000  0.58195959  0.88477565  1
  C  C13  1  0.50000000  0.67021941  0.22373830  1
  C  C14  1  0.50000000  0.64847014  0.55624239  1
  C  C15  1  0.50000000  0.64871171  0.88768184  1
  C  C16  1  0.50000000  0.73451066  0.22320605  1
  C  C17  1  0.50000000  0.71370006  0.55831400  1
  C  C18  1  0.50000000  0.71374563  0.88852660  1
  C  C19  1  0.50000000  0.30970912  0.27834006  1
  C  C20  1  0.50000000  0.31617916  0.61216316  1
  C  C21  1  0.50000000  0.31569394  0.94360869  1
  C  C22  1  0.50000000  0.37576184  0.27744219  1
  C  C23  1  0.50000000  0.38266857  0.61077737  1
  C  C24  1  0.50000000  0.38254186  0.94507405  1
  C  C25  1  0.50000000  0.44130390  0.27634306  1
  C  C26  1  0.50000000  0.44878178  0.61199024  1
  C  C27  1  0.50000000  0.44918703  0.94375026  1
  C  C28  1  0.50000000  0.51562670  0.61555429  1
  C  C29  1  0.50000000  0.51611456  0.93870164  1
  C  C30  1  0.50000000  0.58193913  0.61510080  1
  C  C31  1  0.50000000  0.58177862  0.93945730  1
  C  C32  1  0.50000000  0.67021801  0.27633166  1
  C  C33  1  0.50000000  0.64868185  0.61213218  1
  C  C34  1  0.50000000  0.64852755  0.94360836  1
  C  C35  1  0.50000000  0.73450199  0.27685501  1
  C  C36  1  0.50000000  0.71373050  0.61130811  1
  C  C37  1  0.50000000  0.71373338  0.94150124  1
  C  C38  1  0.50000000  0.27794571  0.30831216  1
  C  C39  1  0.50000000  0.28414023  0.64111217  1
  C  C40  1  0.50000000  0.28289349  0.97098502  1
  C  C41  1  0.50000000  0.34281844  0.30596889  1
  C  C42  1  0.50000000  0.34955236  0.63905737  1
  C  C43  1  0.50000000  0.34834030  0.97206303  1
  C  C44  1  0.50000000  0.40883296  0.30409341  1
  C  C45  1  0.50000000  0.41565095  0.63901837  1
  C  C46  1  0.50000000  0.41543976  0.97329112  1
  C  C47  1  0.50000000  0.48194337  0.64062338  1
  C  C48  1  0.50000000  0.48354793  0.96537375  1
  C  C49  1  0.50000000  0.54882261  0.64228701  1
  C  C50  1  0.50000000  0.54880319  0.96546940  1
  C  C51  1  0.50000000  0.61547754  0.64049397  1
  C  C52  1  0.50000000  0.61433130  0.96640141  1
  C  C53  1  0.50000000  0.70217758  0.30510529  1
  C  C54  1  0.50000000  0.68157364  0.63959942  1
  C  C55  1  0.50000000  0.68247531  0.97170272  1
  C  C56  1  0.50000000  0.28142242  0.02389442  1
  C  C57  1  0.50000000  0.27875848  0.36156117  1
  C  C58  1  0.50000000  0.28434982  0.69398143  1
  C  C59  1  0.50000000  0.34659498  0.02734677  1
  C  C60  1  0.50000000  0.34370479  0.36145216  1
  C  C61  1  0.50000000  0.34964161  0.69444098  1
  C  C62  1  0.50000000  0.41334276  0.02958146  1
  C  C63  1  0.50000000  0.40933460  0.35908092  1
  C  C64  1  0.50000000  0.41564945  0.69463472  1
  C  C65  1  0.50000000  0.48192534  0.69546479  1
  C  C66  1  0.50000000  0.54876126  0.69637873  1
  C  C67  1  0.50000000  0.61541062  0.69529111  1
  C  C68  1  0.50000000  0.68744551  0.02808052  1
  C  C69  1  0.50000000  0.69905307  0.36119221  1
  C  C70  1  0.50000000  0.68166533  0.69510435  1
  C  C71  1  0.50000000  0.31286815  0.05405891  1
  C  C72  1  0.50000000  0.31127897  0.38994793  1
  C  C73  1  0.50000000  0.31672995  0.72214990  1
  C  C74  1  0.50000000  0.37934837  0.05608516  1
  C  C75  1  0.50000000  0.37746433  0.38859920  1
  C  C76  1  0.50000000  0.38281671  0.72239180  1
  C  C77  1  0.50000000  0.44358167  0.06259612  1
  C  C78  1  0.50000000  0.44201403  0.38525478  1
  C  C79  1  0.50000000  0.44863923  0.72254715  1
  C  C80  1  0.50000000  0.51512572  0.72268594  1
  C  C81  1  0.50000000  0.58233953  0.72261232  1
  C  C82  1  0.50000000  0.65932627  0.06432866  1
  C  C83  1  0.50000000  0.66474380  0.38351926  1
  C  C84  1  0.50000000  0.64867754  0.72254013  1
  C  C85  1  0.50000000  0.72226568  0.05087297  1
  C  C86  1  0.50000000  0.72786630  0.39617458  1
  C  C87  1  0.50000000  0.71389269  0.72341444  1
  C  C88  1  0.50000000  0.31123220  0.11016708  1
  C  C89  1  0.50000000  0.31290281  0.44602416  1
  C  C90  1  0.50000000  0.31674968  0.77791876  1
  C  C91  1  0.50000000  0.37745049  0.11150487  1
  C  C92  1  0.50000000  0.37934398  0.44400582  1
  C  C93  1  0.50000000  0.38283224  0.77762978  1
  C  C94  1  0.50000000  0.44197904  0.11488037  1
  C  C95  1  0.50000000  0.44357201  0.43752942  1
  C  C96  1  0.50000000  0.44863973  0.77744176  1
  C  C97  1  0.50000000  0.51512221  0.77723298  1
  C  C98  1  0.50000000  0.58233100  0.77724529  1
  C  C99  1  0.50000000  0.66495625  0.11650699  1
  C  C100  1  0.50000000  0.65921818  0.43571755  1
  C  C101  1  0.50000000  0.64868441  0.77729305  1
  C  C102  1  0.50000000  0.72806256  0.10365394  1
  C  C103  1  0.50000000  0.72217715  0.44894977  1
  C  C104  1  0.50000000  0.71390819  0.77633111  1
  C  C105  1  0.50000000  0.27872806  0.13862770  1
  C  C106  1  0.50000000  0.28141997  0.47610447  1
  C  C107  1  0.50000000  0.28438897  0.80612127  1
  C  C108  1  0.50000000  0.34368850  0.13865466  1
  C  C109  1  0.50000000  0.34660138  0.47275350  1
  C  C110  1  0.50000000  0.34966899  0.80560155  1
  C  C111  1  0.50000000  0.40931379  0.14105708  1
  C  C112  1  0.50000000  0.41332908  0.47050507  1
  C  C113  1  0.50000000  0.41566300  0.80537105  1
  C  C114  1  0.50000000  0.48192625  0.80449638  1
  C  C115  1  0.50000000  0.54876197  0.80351994  1
  C  C116  1  0.50000000  0.61542004  0.80454935  1
  C  C117  1  0.50000000  0.69926970  0.13878066  1
  C  C118  1  0.50000000  0.68739060  0.47185053  1
  C  C119  1  0.50000000  0.68169145  0.80468131  1
  C  C120  1  0.50000000  0.27799693  0.19188077  1
  C  C121  1  0.50000000  0.28285265  0.52901928  1
  C  C122  1  0.50000000  0.28418770  0.85900416  1
  C  C123  1  0.50000000  0.34284362  0.19413538  1
  C  C124  1  0.50000000  0.34832099  0.52802848  1
  C  C125  1  0.50000000  0.34959103  0.86100024  1
  C  C126  1  0.50000000  0.40887773  0.19606811  1
  C  C127  1  0.50000000  0.41544499  0.52679277  1
  C  C128  1  0.50000000  0.41565122  0.86099047  1
  C  C129  1  0.50000000  0.48356598  0.53451139  1
  C  C130  1  0.50000000  0.48193657  0.85934356  1
  C  C131  1  0.50000000  0.54876866  0.53440668  1
  C  C132  1  0.50000000  0.54882802  0.85761333  1
  C  C133  1  0.50000000  0.61427374  0.53346237  1
  C  C134  1  0.50000000  0.61549180  0.85935156  1
  C  C135  1  0.50000000  0.70220188  0.19492949  1
  C  C136  1  0.50000000  0.68240909  0.52818502  1
  C  C137  1  0.50000000  0.68159987  0.86020300  1
  H  H138  1  0.50000000  0.76037265  0.20312903  1
  H  H139  1  0.50000000  0.73990175  0.53966328  1
  H  H140  1  0.50000000  0.73974133  0.86912066  1
  H  H141  1  0.50000000  0.76039554  0.29681379  1
  H  H142  1  0.50000000  0.73970289  0.63076120  1
  H  H143  1  0.50000000  0.73998772  0.96007523  1
  H  H144  1  0.50000000  0.25161265  0.28960055  1
  H  H145  1  0.50000000  0.25805260  0.62194093  1
  H  H146  1  0.50000000  0.25746259  0.95008262  1
  H  H147  1  0.50000000  0.25495133  0.04209259  1
  H  H148  1  0.50000000  0.25302729  0.38178503  1
  H  H149  1  0.50000000  0.25848674  0.71374660  1
  H  H150  1  0.50000000  0.74638579  0.02703822  1
  H  H151  1  0.50000000  0.75563483  0.38227038  1
  H  H152  1  0.50000000  0.73976525  0.70368372  1
  H  H153  1  0.50000000  0.75591579  0.11724983  1
  H  H154  1  0.50000000  0.74636378  0.47259319  1
  H  H155  1  0.50000000  0.73979934  0.79598608  1
  H  H156  1  0.50000000  0.25291610  0.11862840  1
  H  H157  1  0.50000000  0.25500570  0.45769947  1
  H  H158  1  0.50000000  0.25857896  0.78622194  1
  H  H159  1  0.50000000  0.25172197  0.21072869  1
  H  H160  1  0.50000000  0.25736038  0.54975212  1
  H  H161  1  0.50000000  0.25815304  0.87834148  1
  H  H162  1  0.50000000  0.46722874  0.20435950  1
  H  H163  1  0.50000000  0.64399945  0.20526352  1
  H  H164  1  0.50000000  0.46711302  0.29609825  1
  H  H165  1  0.50000000  0.64407399  0.29503748  1
  H  H166  1  0.50000000  0.48831189  0.00570187  1
  H  H167  1  0.50000000  0.54858439  0.00746819  1
  H  H168  1  0.50000000  0.61081412  0.00734163  1
  H  H169  1  0.50000000  0.47081278  0.04957503  1
  H  H170  1  0.50000000  0.46759701  0.36485897  1
  H  H171  1  0.50000000  0.63126010  0.05399958  1
  H  H172  1  0.50000000  0.64051346  0.36012132  1
  H  H173  1  0.50000000  0.46751845  0.13536098  1
  H  H174  1  0.50000000  0.47075798  0.45070850  1
  H  H175  1  0.50000000  0.64076160  0.14001810  1
  H  H176  1  0.50000000  0.63121929  0.44637223  1
  H  H177  1  0.50000000  0.48838378  0.49416013  1
  H  H178  1  0.50000000  0.54861835  0.49239039  1
  H  H179  1  0.50000000  0.61066247  0.49253147  1
