# generated using pymatgen
data_H11C39
_symmetry_space_group_name_H-M   'P 1'
_cell_length_a   10.00000000
_cell_length_b   41.10890000
_cell_length_c   26.01157260
_cell_angle_alpha   90.00000000
_cell_angle_beta   90.00000000
_cell_angle_gamma   90.00000000
_symmetry_Int_Tables_number   1
_chemical_formula_structural   H11C39
_chemical_formula_sum   'H44 C156'
_cell_volume   10693.07136967
_cell_formula_units_Z   4
loop_
 _symmetry_equiv_pos_site_id
 _symmetry_equiv_pos_as_xyz
  1  'x, y, z'
loop_
 _atom_site_type_symbol
 _atom_site_label
 _atom_site_symmetry_multiplicity
 _atom_site_fract_x
 _atom_site_fract_y
 _atom_site_fract_z
 _atom_site_occupancy
  C  C0  1  0.50000000  0.28909332  0.30517675  1
  C  C1  1  0.50000000  0.28753245  0.63844241  1
  C  C2  1  0.50000000  0.28774229  0.97221746  1
  C  C3  1  0.50000000  0.34921992  0.30578210  1
  C  C4  1  0.50000000  0.34762874  0.63915707  1
  C  C5  1  0.50000000  0.34780999  0.97195449  1
  C  C6  1  0.50000000  0.40816145  0.30716802  1
  C  C7  1  0.50000000  0.40749324  0.63949225  1
  C  C8  1  0.50000000  0.40742142  0.97130623  1
  C  C9  1  0.50000000  0.46749621  0.64010060  1
  C  C10  1  0.50000000  0.46787263  0.96823197  1
  C  C11  1  0.50000000  0.52763623  0.64066729  1
  C  C12  1  0.50000000  0.52759133  0.96824558  1
  C  C13  1  0.50000000  0.58754012  0.64092185  1
  C  C14  1  0.50000000  0.58751277  0.96799150  1
  C  C15  1  0.50000000  0.64776796  0.63990693  1
  C  C16  1  0.50000000  0.64691616  0.96776141  1
  C  C17  1  0.50000000  0.72766883  0.30497888  1
  C  C18  1  0.50000000  0.70759845  0.63959566  1
  C  C19  1  0.50000000  0.70873110  0.97199083  1
  C  C20  1  0.50000000  0.28803234  0.02829304  1
  C  C21  1  0.50000000  0.28894907  0.36120073  1
  C  C22  1  0.50000000  0.28740480  0.69451159  1
  C  C23  1  0.50000000  0.34804373  0.02714273  1
  C  C24  1  0.50000000  0.34904976  0.36128164  1
  C  C25  1  0.50000000  0.34748733  0.69446769  1
  C  C26  1  0.50000000  0.40690590  0.02519358  1
  C  C27  1  0.50000000  0.40796972  0.36050056  1
  C  C28  1  0.50000000  0.40732897  0.69467815  1
  C  C29  1  0.50000000  0.46734275  0.69523421  1
  C  C30  1  0.50000000  0.52751420  0.69554208  1
  C  C31  1  0.50000000  0.58759165  0.69561883  1
  C  C32  1  0.50000000  0.64768527  0.69503084  1
  C  C33  1  0.50000000  0.71358584  0.02837212  1
  C  C34  1  0.50000000  0.72485112  0.36116110  1
  C  C35  1  0.50000000  0.70758297  0.69522661  1
  C  C36  1  0.50000000  0.25903109  0.05750339  1
  C  C37  1  0.50000000  0.25957972  0.38943009  1
  C  C38  1  0.50000000  0.25824318  0.72324322  1
  C  C39  1  0.50000000  0.31809855  0.05551339  1
  C  C40  1  0.50000000  0.31865999  0.38900080  1
  C  C41  1  0.50000000  0.31732736  0.72222649  1
  C  C42  1  0.50000000  0.37825555  0.05423460  1
  C  C43  1  0.50000000  0.37880272  0.38921590  1
  C  C44  1  0.50000000  0.37733518  0.72223974  1
  C  C45  1  0.50000000  0.43736252  0.72247872  1
  C  C46  1  0.50000000  0.49736525  0.72261379  1
  C  C47  1  0.50000000  0.55748175  0.72265331  1
  C  C48  1  0.50000000  0.61778725  0.72248940  1
  C  C49  1  0.50000000  0.68821991  0.06473507  1
  C  C50  1  0.50000000  0.69367167  0.38302918  1
  C  C51  1  0.50000000  0.67769559  0.72259544  1
  C  C52  1  0.50000000  0.74520628  0.05076017  1
  C  C53  1  0.50000000  0.75086420  0.39637524  1
  C  C54  1  0.50000000  0.73680143  0.72348352  1
  C  C55  1  0.50000000  0.25946426  0.11062205  1
  C  C56  1  0.50000000  0.25918641  0.44252919  1
  C  C57  1  0.50000000  0.25819506  0.77650859  1
  C  C58  1  0.50000000  0.31852361  0.11095192  1
  C  C59  1  0.50000000  0.31825348  0.44443237  1
  C  C60  1  0.50000000  0.31729152  0.77767919  1
  C  C61  1  0.50000000  0.37868431  0.11069361  1
  C  C62  1  0.50000000  0.37838927  0.44569961  1
  C  C63  1  0.50000000  0.37731455  0.77773114  1
  C  C64  1  0.50000000  0.43734453  0.77755193  1
  C  C65  1  0.50000000  0.49734645  0.77744607  1
  C  C66  1  0.50000000  0.55746456  0.77740220  1
  C  C67  1  0.50000000  0.61776902  0.77760127  1
  C  C68  1  0.50000000  0.69343405  0.11700788  1
  C  C69  1  0.50000000  0.68846859  0.43529882  1
  C  C70  1  0.50000000  0.67769619  0.77753308  1
  C  C71  1  0.50000000  0.75064684  0.10364478  1
  C  C72  1  0.50000000  0.74541034  0.44927287  1
  C  C73  1  0.50000000  0.73682391  0.77656612  1
  C  C74  1  0.50000000  0.28884364  0.13883233  1
  C  C75  1  0.50000000  0.28820363  0.47165497  1
  C  C76  1  0.50000000  0.28733094  0.80530936  1
  C  C77  1  0.50000000  0.34894283  0.13867487  1
  C  C78  1  0.50000000  0.34818552  0.47282495  1
  C  C79  1  0.50000000  0.34743737  0.80546444  1
  C  C80  1  0.50000000  0.40789465  0.13929623  1
  C  C81  1  0.50000000  0.40704818  0.47474381  1
  C  C82  1  0.50000000  0.40728700  0.80533296  1
  C  C83  1  0.50000000  0.46730944  0.80480803  1
  C  C84  1  0.50000000  0.52749411  0.80451601  1
  C  C85  1  0.50000000  0.58755613  0.80445969  1
  C  C86  1  0.50000000  0.64766220  0.80506536  1
  C  C87  1  0.50000000  0.72461253  0.13881682  1
  C  C88  1  0.50000000  0.71379585  0.47171055  1
  C  C89  1  0.50000000  0.70760749  0.80488893  1
  C  C90  1  0.50000000  0.28903773  0.19487313  1
  C  C91  1  0.50000000  0.28792455  0.52768969  1
  C  C92  1  0.50000000  0.28739417  0.86141325  1
  C  C93  1  0.50000000  0.34915387  0.19415164  1
  C  C94  1  0.50000000  0.34796874  0.52799145  1
  C  C95  1  0.50000000  0.34751540  0.86078217  1
  C  C96  1  0.50000000  0.40812663  0.19262605  1
  C  C97  1  0.50000000  0.40755426  0.52864509  1
  C  C98  1  0.50000000  0.40739929  0.86050580  1
  C  C99  1  0.50000000  0.46800142  0.53176111  1
  C  C100  1  0.50000000  0.46743253  0.85993097  1
  C  C101  1  0.50000000  0.52769400  0.53184691  1
  C  C102  1  0.50000000  0.52758813  0.85939217  1
  C  C103  1  0.50000000  0.58760212  0.53209498  1
  C  C104  1  0.50000000  0.58747536  0.85915057  1
  C  C105  1  0.50000000  0.64703172  0.53224253  1
  C  C106  1  0.50000000  0.64771407  0.86017421  1
  C  C107  1  0.50000000  0.72747012  0.19497309  1
  C  C108  1  0.50000000  0.70886782  0.52810636  1
  C  C109  1  0.50000000  0.70756436  0.86056001  1
  C  C110  1  0.50000000  0.25986814  0.22350110  1
  C  C111  1  0.50000000  0.25863760  0.55619249  1
  C  C112  1  0.50000000  0.25830677  0.89046995  1
  C  C113  1  0.50000000  0.31898500  0.22229934  1
  C  C114  1  0.50000000  0.31769246  0.55561098  1
  C  C115  1  0.50000000  0.31736723  0.88887432  1
  C  C116  1  0.50000000  0.37910343  0.22171690  1
  C  C117  1  0.50000000  0.37767341  0.55623007  1
  C  C118  1  0.50000000  0.37737145  0.88822117  1
  C  C119  1  0.50000000  0.43818377  0.55692833  1
  C  C120  1  0.50000000  0.43752045  0.88773606  1
  C  C121  1  0.50000000  0.49794336  0.55830747  1
  C  C122  1  0.50000000  0.49755523  0.88658737  1
  C  C123  1  0.50000000  0.55761497  0.55810981  1
  C  C124  1  0.50000000  0.55748592  0.88649677  1
  C  C125  1  0.50000000  0.61735436  0.55888514  1
  C  C126  1  0.50000000  0.61746678  0.88616333  1
  C  C127  1  0.50000000  0.69852739  0.22373159  1
  C  C128  1  0.50000000  0.67789603  0.55562288  1
  C  C129  1  0.50000000  0.67783872  0.88833643  1
  C  C130  1  0.50000000  0.75683015  0.22294542  1
  C  C131  1  0.50000000  0.73705435  0.55857187  1
  C  C132  1  0.50000000  0.73682190  0.88846898  1
  C  C133  1  0.50000000  0.25989580  0.27662919  1
  C  C134  1  0.50000000  0.25845728  0.60937281  1
  C  C135  1  0.50000000  0.25846722  0.94367602  1
  C  C136  1  0.50000000  0.31901784  0.27770490  1
  C  C137  1  0.50000000  0.31751173  0.61101750  1
  C  C138  1  0.50000000  0.31751580  0.94428522  1
  C  C139  1  0.50000000  0.37913850  0.27809371  1
  C  C140  1  0.50000000  0.37749384  0.61173818  1
  C  C141  1  0.50000000  0.37752313  0.94373648  1
  C  C142  1  0.50000000  0.43761304  0.61226148  1
  C  C143  1  0.50000000  0.43806796  0.94305584  1
  C  C144  1  0.50000000  0.49761963  0.61345308  1
  C  C145  1  0.50000000  0.49784635  0.94173843  1
  C  C146  1  0.50000000  0.55754831  0.61360433  1
  C  C147  1  0.50000000  0.55751756  0.94199986  1
  C  C148  1  0.50000000  0.61753791  0.61389596  1
  C  C149  1  0.50000000  0.61724544  0.94114989  1
  C  C150  1  0.50000000  0.69864845  0.27641557  1
  C  C151  1  0.50000000  0.67789973  0.61175354  1
  C  C152  1  0.50000000  0.67778998  0.94443413  1
  C  C153  1  0.50000000  0.75693925  0.27678578  1
  C  C154  1  0.50000000  0.73685805  0.61171951  1
  C  C155  1  0.50000000  0.73696820  0.94161098  1
  H  H156  1  0.50000000  0.23538240  0.03832719  1
  H  H157  1  0.50000000  0.23629761  0.36917490  1
  H  H158  1  0.50000000  0.23480091  0.70337224  1
  H  H159  1  0.50000000  0.76688045  0.02650824  1
  H  H160  1  0.50000000  0.77610705  0.38279589  1
  H  H161  1  0.50000000  0.76017527  0.70351383  1
  H  H162  1  0.50000000  0.23622392  0.13099676  1
  H  H163  1  0.50000000  0.23556757  0.46178735  1
  H  H164  1  0.50000000  0.23472542  0.79631758  1
  H  H165  1  0.50000000  0.77588388  0.11724010  1
  H  H166  1  0.50000000  0.76707424  0.47351875  1
  H  H167  1  0.50000000  0.76022876  0.79649351  1
  H  H168  1  0.50000000  0.23640972  0.20373776  1
  H  H169  1  0.50000000  0.23529127  0.53608618  1
  H  H170  1  0.50000000  0.23477782  0.87088280  1
  H  H171  1  0.50000000  0.78011552  0.20247941  1
  H  H172  1  0.50000000  0.76088041  0.54019999  1
  H  H173  1  0.50000000  0.76022158  0.86859979  1
  H  H174  1  0.50000000  0.23646942  0.29649135  1
  H  H175  1  0.50000000  0.23492336  0.62892886  1
  H  H176  1  0.50000000  0.23511599  0.96379747  1
  H  H177  1  0.50000000  0.78028781  0.29708470  1
  H  H178  1  0.50000000  0.76026256  0.63152987  1
  H  H179  1  0.50000000  0.76075777  0.96011244  1
  H  H180  1  0.50000000  0.43174357  0.28771257  1
  H  H181  1  0.50000000  0.46924454  0.01019901  1
  H  H182  1  0.50000000  0.52750233  0.01040174  1
  H  H183  1  0.50000000  0.58761765  0.01017249  1
  H  H184  1  0.50000000  0.64379819  0.00888775  1
  H  H185  1  0.50000000  0.43007759  0.04550993  1
  H  H186  1  0.50000000  0.43148304  0.38015614  1
  H  H187  1  0.50000000  0.66288402  0.05425950  1
  H  H188  1  0.50000000  0.67181059  0.35933455  1
  H  H189  1  0.50000000  0.67160234  0.14076388  1
  H  H190  1  0.50000000  0.66314038  0.44580005  1
  H  H191  1  0.50000000  0.43136776  0.11947730  1
  H  H192  1  0.50000000  0.43023148  0.45444671  1
  H  H193  1  0.50000000  0.43172396  0.21203773  1
  H  H194  1  0.50000000  0.46936813  0.48979960  1
  H  H195  1  0.50000000  0.52758223  0.48969420  1
  H  H196  1  0.50000000  0.58768003  0.48991524  1
  H  H197  1  0.50000000  0.64395285  0.49108903  1
  H  H198  1  0.50000000  0.67473901  0.20536232  1
  H  H199  1  0.50000000  0.67494535  0.29500527  1
