# generated using pymatgen
data_H20C69
_symmetry_space_group_name_H-M   'P 1'
_cell_length_a   20.00000000
_cell_length_b   37.22700000
_cell_length_c   25.87210324
_cell_angle_alpha   90.00000000
_cell_angle_beta   90.00000000
_cell_angle_gamma   90.00000000
_symmetry_Int_Tables_number   1
_chemical_formula_structural   H20C69
_chemical_formula_sum   'H40 C138'
_cell_volume   19262.81574319
_cell_formula_units_Z   2
loop_
 _symmetry_equiv_pos_site_id
 _symmetry_equiv_pos_as_xyz
  1  'x, y, z'
loop_
 _atom_site_type_symbol
 _atom_site_label
 _atom_site_symmetry_multiplicity
 _atom_site_fract_x
 _atom_site_fract_y
 _atom_site_fract_z
 _atom_site_occupancy
  C  C0  1  0.50000000  0.31793038  0.22229267  1
  C  C1  1  0.50000000  0.31711506  0.55575443  1
  C  C2  1  0.50000000  0.31716772  0.88877875  1
  C  C3  1  0.50000000  0.38429790  0.22225044  1
  C  C4  1  0.50000000  0.38348122  0.55618504  1
  C  C5  1  0.50000000  0.38352051  0.88874142  1
  C  C6  1  0.50000000  0.45070355  0.55634544  1
  C  C7  1  0.50000000  0.45020691  0.88797596  1
  C  C8  1  0.50000000  0.51667050  0.55791361  1
  C  C9  1  0.50000000  0.51664426  0.88692643  1
  C  C10  1  0.50000000  0.58258867  0.55647392  1
  C  C11  1  0.50000000  0.58302414  0.88799890  1
  C  C12  1  0.50000000  0.64894887  0.22203277  1
  C  C13  1  0.50000000  0.64978580  0.55604777  1
  C  C14  1  0.50000000  0.64973149  0.88849570  1
  C  C15  1  0.50000000  0.71455629  0.22344883  1
  C  C16  1  0.50000000  0.71533291  0.55705234  1
  C  C17  1  0.50000000  0.71524053  0.88993800  1
  C  C18  1  0.50000000  0.31792448  0.27776211  1
  C  C19  1  0.50000000  0.31718715  0.61118443  1
  C  C20  1  0.50000000  0.31710490  0.94422015  1
  C  C21  1  0.50000000  0.38430115  0.27782146  1
  C  C22  1  0.50000000  0.38353747  0.61122136  1
  C  C23  1  0.50000000  0.38346545  0.94379055  1
  C  C24  1  0.50000000  0.45021711  0.61197605  1
  C  C25  1  0.50000000  0.45068805  0.94360517  1
  C  C26  1  0.50000000  0.51664621  0.61301078  1
  C  C27  1  0.50000000  0.51666564  0.94200543  1
  C  C28  1  0.50000000  0.58302222  0.61196700  1
  C  C29  1  0.50000000  0.58258915  0.94349207  1
  C  C30  1  0.50000000  0.64895459  0.27801159  1
  C  C31  1  0.50000000  0.64972898  0.61150728  1
  C  C32  1  0.50000000  0.64978316  0.94395049  1
  C  C33  1  0.50000000  0.71457251  0.27648619  1
  C  C34  1  0.50000000  0.71522534  0.61009284  1
  C  C35  1  0.50000000  0.71534335  0.94299532  1
  C  C36  1  0.50000000  0.28533641  0.30668574  1
  C  C37  1  0.50000000  0.28468194  0.64025293  1
  C  C38  1  0.50000000  0.28467650  0.97349586  1
  C  C39  1  0.50000000  0.35108283  0.30569242  1
  C  C40  1  0.50000000  0.35039144  0.63898226  1
  C  C41  1  0.50000000  0.35031475  0.97191418  1
  C  C42  1  0.50000000  0.41669908  0.30722763  1
  C  C43  1  0.50000000  0.41698895  0.63935149  1
  C  C44  1  0.50000000  0.41670989  0.97205703  1
  C  C45  1  0.50000000  0.48327687  0.63992566  1
  C  C46  1  0.50000000  0.48361012  0.96876375  1
  C  C47  1  0.50000000  0.54998430  0.63991623  1
  C  C48  1  0.50000000  0.54964381  0.96874981  1
  C  C49  1  0.50000000  0.61654948  0.30721282  1
  C  C50  1  0.50000000  0.61632557  0.63942194  1
  C  C51  1  0.50000000  0.61653692  0.97193470  1
  C  C52  1  0.50000000  0.68207492  0.30551916  1
  C  C53  1  0.50000000  0.68273167  0.63894703  1
  C  C54  1  0.50000000  0.68283186  0.97185922  1
  C  C55  1  0.50000000  0.28474560  0.02655118  1
  C  C56  1  0.50000000  0.28518465  0.35969809  1
  C  C57  1  0.50000000  0.28474005  0.69323125  1
  C  C58  1  0.50000000  0.35034129  0.02746658  1
  C  C59  1  0.50000000  0.35090813  0.36143125  1
  C  C60  1  0.50000000  0.35038236  0.69457922  1
  C  C61  1  0.50000000  0.41581029  0.02567223  1
  C  C62  1  0.50000000  0.41650540  0.36035759  1
  C  C63  1  0.50000000  0.41690554  0.69441373  1
  C  C64  1  0.50000000  0.48326612  0.69509872  1
  C  C65  1  0.50000000  0.54997402  0.69513367  1
  C  C66  1  0.50000000  0.61738817  0.02563111  1
  C  C67  1  0.50000000  0.61673579  0.36035765  1
  C  C68  1  0.50000000  0.61636302  0.69440488  1
  C  C69  1  0.50000000  0.68284498  0.02755496  1
  C  C70  1  0.50000000  0.68220565  0.36141253  1
  C  C71  1  0.50000000  0.68275700  0.69472121  1
  C  C72  1  0.50000000  0.31729623  0.05554548  1
  C  C73  1  0.50000000  0.31755877  0.38900438  1
  C  C74  1  0.50000000  0.31729163  0.72222991  1
  C  C75  1  0.50000000  0.38372479  0.05488976  1
  C  C76  1  0.50000000  0.38400889  0.38949300  1
  C  C77  1  0.50000000  0.38361972  0.72243091  1
  C  C78  1  0.50000000  0.45007176  0.72235482  1
  C  C79  1  0.50000000  0.51663983  0.72248442  1
  C  C80  1  0.50000000  0.58316070  0.72239961  1
  C  C81  1  0.50000000  0.64951298  0.05465557  1
  C  C82  1  0.50000000  0.64926405  0.38923513  1
  C  C83  1  0.50000000  0.64965554  0.72227401  1
  C  C84  1  0.50000000  0.71519471  0.05688351  1
  C  C85  1  0.50000000  0.71488958  0.39008386  1
  C  C86  1  0.50000000  0.71515075  0.72347488  1
  C  C87  1  0.50000000  0.31756938  0.11104486  1
  C  C88  1  0.50000000  0.31728706  0.44448697  1
  C  C89  1  0.50000000  0.31729454  0.77768948  1
  C  C90  1  0.50000000  0.38402403  0.11060452  1
  C  C91  1  0.50000000  0.38370386  0.44514086  1
  C  C92  1  0.50000000  0.38361578  0.77753002  1
  C  C93  1  0.50000000  0.45007035  0.77761075  1
  C  C94  1  0.50000000  0.51663852  0.77748125  1
  C  C95  1  0.50000000  0.58315832  0.77757866  1
  C  C96  1  0.50000000  0.64920948  0.11077466  1
  C  C97  1  0.50000000  0.64955171  0.44534596  1
  C  C98  1  0.50000000  0.64964849  0.77773365  1
  C  C99  1  0.50000000  0.71486857  0.10994599  1
  C  C100  1  0.50000000  0.71521074  0.44312984  1
  C  C101  1  0.50000000  0.71513534  0.77660064  1
  C  C102  1  0.50000000  0.28519186  0.14035815  1
  C  C103  1  0.50000000  0.28473565  0.47344197  1
  C  C104  1  0.50000000  0.28475359  0.80669407  1
  C  C105  1  0.50000000  0.35092843  0.13861677  1
  C  C106  1  0.50000000  0.35032835  0.47255010  1
  C  C107  1  0.50000000  0.35037443  0.80537537  1
  C  C108  1  0.50000000  0.41652075  0.13977568  1
  C  C109  1  0.50000000  0.41579153  0.47425536  1
  C  C110  1  0.50000000  0.41690077  0.80554918  1
  C  C111  1  0.50000000  0.48326527  0.80486657  1
  C  C112  1  0.50000000  0.54997262  0.80483348  1
  C  C113  1  0.50000000  0.61669692  0.13972132  1
  C  C114  1  0.50000000  0.61741153  0.47433528  1
  C  C115  1  0.50000000  0.61635639  0.80559167  1
  C  C116  1  0.50000000  0.68215988  0.13857725  1
  C  C117  1  0.50000000  0.68286932  0.47246739  1
  C  C118  1  0.50000000  0.68273765  0.80531593  1
  C  C119  1  0.50000000  0.28535954  0.19336716  1
  C  C120  1  0.50000000  0.28467240  0.52650754  1
  C  C121  1  0.50000000  0.28467845  0.85966366  1
  C  C122  1  0.50000000  0.35108859  0.19436579  1
  C  C123  1  0.50000000  0.35032404  0.52808730  1
  C  C124  1  0.50000000  0.35037512  0.86097619  1
  C  C125  1  0.50000000  0.41669781  0.19290972  1
  C  C126  1  0.50000000  0.41672569  0.52790816  1
  C  C127  1  0.50000000  0.41697596  0.86060945  1
  C  C128  1  0.50000000  0.48361540  0.53113966  1
  C  C129  1  0.50000000  0.48327055  0.86002957  1
  C  C130  1  0.50000000  0.54964848  0.53115471  1
  C  C131  1  0.50000000  0.54998355  0.86003891  1
  C  C132  1  0.50000000  0.61654552  0.19286469  1
  C  C133  1  0.50000000  0.61653330  0.52803581  1
  C  C134  1  0.50000000  0.61632794  0.86055954  1
  C  C135  1  0.50000000  0.68204894  0.19447148  1
  C  C136  1  0.50000000  0.68284195  0.52815768  1
  C  C137  1  0.50000000  0.68273335  0.86108277  1
  H  H138  1  0.50000000  0.74038132  0.20339375  1
  H  H139  1  0.50000000  0.74120516  0.53710139  1
  H  H140  1  0.50000000  0.74100944  0.86976168  1
  H  H141  1  0.50000000  0.74044166  0.29641427  1
  H  H142  1  0.50000000  0.74104817  0.63010590  1
  H  H143  1  0.50000000  0.74116438  0.96312107  1
  H  H144  1  0.50000000  0.25957312  0.28648181  1
  H  H145  1  0.50000000  0.25886500  0.62017167  1
  H  H146  1  0.50000000  0.25874908  0.95370599  1
  H  H147  1  0.50000000  0.25888133  0.04650491  1
  H  H148  1  0.50000000  0.25931680  0.37965465  1
  H  H149  1  0.50000000  0.25895518  0.71334596  1
  H  H150  1  0.50000000  0.74117837  0.03721946  1
  H  H151  1  0.50000000  0.74060294  0.36976935  1
  H  H152  1  0.50000000  0.74098222  0.70347102  1
  H  H153  1  0.50000000  0.74053180  0.13042835  1
  H  H154  1  0.50000000  0.74123145  0.46266074  1
  H  H155  1  0.50000000  0.74093676  0.79668615  1
  H  H156  1  0.50000000  0.25926141  0.12059656  1
  H  H157  1  0.50000000  0.25892474  0.45332346  1
  H  H158  1  0.50000000  0.25894671  0.78664860  1
  H  H159  1  0.50000000  0.25956461  0.21347210  1
  H  H160  1  0.50000000  0.25879171  0.54643023  1
  H  H161  1  0.50000000  0.25879718  0.87955630  1
  H  H162  1  0.50000000  0.44268651  0.28753899  1
  H  H163  1  0.50000000  0.48503972  0.01097629  1
  H  H164  1  0.50000000  0.54837654  0.01096787  1
  H  H165  1  0.50000000  0.59062872  0.28740567  1
  H  H166  1  0.50000000  0.44116855  0.04662549  1
  H  H167  1  0.50000000  0.44241366  0.38028634  1
  H  H168  1  0.50000000  0.59199290  0.04654309  1
  H  H169  1  0.50000000  0.59089476  0.38042163  1
  H  H170  1  0.50000000  0.44246537  0.11996748  1
  H  H171  1  0.50000000  0.44110229  0.45315348  1
  H  H172  1  0.50000000  0.59081534  0.11976418  1
  H  H173  1  0.50000000  0.59207173  0.45322520  1
  H  H174  1  0.50000000  0.44265814  0.21272243  1
  H  H175  1  0.50000000  0.48502473  0.48889125  1
  H  H176  1  0.50000000  0.54840393  0.48890246  1
  H  H177  1  0.50000000  0.59066190  0.21280737  1
