# generated using pymatgen
data_H8C39
_symmetry_space_group_name_H-M   'P 1'
_cell_length_a   10.00000000
_cell_length_b   41.10890000
_cell_length_c   26.04554159
_cell_angle_alpha   90.00000000
_cell_angle_beta   90.00000000
_cell_angle_gamma   90.00000000
_symmetry_Int_Tables_number   1
_chemical_formula_structural   H8C39
_chemical_formula_sum   'H32 C156'
_cell_volume   10707.03564641
_cell_formula_units_Z   4
loop_
 _symmetry_equiv_pos_site_id
 _symmetry_equiv_pos_as_xyz
  1  'x, y, z'
loop_
 _atom_site_type_symbol
 _atom_site_label
 _atom_site_symmetry_multiplicity
 _atom_site_fract_x
 _atom_site_fract_y
 _atom_site_fract_z
 _atom_site_occupancy
  C  C0  1  0.50000000  0.28819797  0.64099536  1
  C  C1  1  0.50000000  0.28898090  0.96724256  1
  C  C2  1  0.50000000  0.34935605  0.64088957  1
  C  C3  1  0.50000000  0.34805762  0.96441937  1
  C  C4  1  0.50000000  0.41095070  0.30447640  1
  C  C5  1  0.50000000  0.40964255  0.63962030  1
  C  C6  1  0.50000000  0.40900163  0.97261314  1
  C  C7  1  0.50000000  0.47041460  0.30579417  1
  C  C8  1  0.50000000  0.46975017  0.63846676  1
  C  C9  1  0.50000000  0.46972400  0.97246258  1
  C  C10  1  0.50000000  0.52958542  0.30579417  1
  C  C11  1  0.50000000  0.53024985  0.63846676  1
  C  C12  1  0.50000000  0.53027602  0.97246258  1
  C  C13  1  0.50000000  0.58904932  0.30447640  1
  C  C14  1  0.50000000  0.59035747  0.63962030  1
  C  C15  1  0.50000000  0.59099839  0.97261314  1
  C  C16  1  0.50000000  0.65064397  0.64088957  1
  C  C17  1  0.50000000  0.65194240  0.96441937  1
  C  C18  1  0.50000000  0.71180205  0.64099536  1
  C  C19  1  0.50000000  0.71101912  0.96724257  1
  C  C20  1  0.50000000  0.28864149  0.69617077  1
  C  C21  1  0.50000000  0.34952837  0.69557371  1
  C  C22  1  0.50000000  0.40957456  0.02840511  1
  C  C23  1  0.50000000  0.41136562  0.35928397  1
  C  C24  1  0.50000000  0.40974654  0.69469108  1
  C  C25  1  0.50000000  0.46996549  0.02770116  1
  C  C26  1  0.50000000  0.47040639  0.36101075  1
  C  C27  1  0.50000000  0.46986818  0.69424264  1
  C  C28  1  0.50000000  0.53003453  0.02770116  1
  C  C29  1  0.50000000  0.52959363  0.36101075  1
  C  C30  1  0.50000000  0.53013184  0.69424264  1
  C  C31  1  0.50000000  0.59042545  0.02840511  1
  C  C32  1  0.50000000  0.58863439  0.35928397  1
  C  C33  1  0.50000000  0.59025348  0.69469108  1
  C  C34  1  0.50000000  0.65047165  0.69557371  1
  C  C35  1  0.50000000  0.71135853  0.69617077  1
  C  C36  1  0.50000000  0.25924000  0.72366506  1
  C  C37  1  0.50000000  0.31899921  0.72265497  1
  C  C38  1  0.50000000  0.38170736  0.06124939  1
  C  C39  1  0.50000000  0.38216908  0.38654803  1
  C  C40  1  0.50000000  0.37961968  0.72239733  1
  C  C41  1  0.50000000  0.43997781  0.05569984  1
  C  C42  1  0.50000000  0.44050895  0.38868007  1
  C  C43  1  0.50000000  0.44001229  0.72223163  1
  C  C44  1  0.50000000  0.50000001  0.05552587  1
  C  C45  1  0.50000000  0.50000001  0.38918268  1
  C  C46  1  0.50000000  0.50000001  0.72221375  1
  C  C47  1  0.50000000  0.56002220  0.05569984  1
  C  C48  1  0.50000000  0.55949107  0.38868007  1
  C  C49  1  0.50000000  0.55998773  0.72223163  1
  C  C50  1  0.50000000  0.61829266  0.06124939  1
  C  C51  1  0.50000000  0.61783094  0.38654803  1
  C  C52  1  0.50000000  0.62038034  0.72239733  1
  C  C53  1  0.50000000  0.68100081  0.72265497  1
  C  C54  1  0.50000000  0.74076002  0.72366506  1
  C  C55  1  0.50000000  0.25924474  0.77630826  1
  C  C56  1  0.50000000  0.31900192  0.77731163  1
  C  C57  1  0.50000000  0.38217989  0.11347069  1
  C  C58  1  0.50000000  0.38174590  0.43877072  1
  C  C59  1  0.50000000  0.37961678  0.77754825  1
  C  C60  1  0.50000000  0.44050338  0.11127764  1
  C  C61  1  0.50000000  0.44000079  0.44424659  1
  C  C62  1  0.50000000  0.44000946  0.77771613  1
  C  C63  1  0.50000000  0.50000001  0.11077634  1
  C  C64  1  0.50000000  0.50000001  0.44441921  1
  C  C65  1  0.50000000  0.50000001  0.77773080  1
  C  C66  1  0.50000000  0.55949664  0.11127764  1
  C  C67  1  0.50000000  0.55999923  0.44424659  1
  C  C68  1  0.50000000  0.55999056  0.77771613  1
  C  C69  1  0.50000000  0.61782013  0.11347069  1
  C  C70  1  0.50000000  0.61825412  0.43877072  1
  C  C71  1  0.50000000  0.62038324  0.77754825  1
  C  C72  1  0.50000000  0.68099810  0.77731163  1
  C  C73  1  0.50000000  0.74075528  0.77630826  1
  C  C74  1  0.50000000  0.28864073  0.80381451  1
  C  C75  1  0.50000000  0.34952607  0.80438472  1
  C  C76  1  0.50000000  0.41137202  0.14071712  1
  C  C77  1  0.50000000  0.40961839  0.47156851  1
  C  C78  1  0.50000000  0.40974813  0.80526627  1
  C  C79  1  0.50000000  0.47040375  0.13894409  1
  C  C80  1  0.50000000  0.46997370  0.47225174  1
  C  C81  1  0.50000000  0.46986739  0.80570750  1
  C  C82  1  0.50000000  0.52959627  0.13894409  1
  C  C83  1  0.50000000  0.53002632  0.47225174  1
  C  C84  1  0.50000000  0.53013263  0.80570750  1
  C  C85  1  0.50000000  0.58862800  0.14071712  1
  C  C86  1  0.50000000  0.59038163  0.47156851  1
  C  C87  1  0.50000000  0.59025189  0.80526628  1
  C  C88  1  0.50000000  0.65047395  0.80438472  1
  C  C89  1  0.50000000  0.71135929  0.80381451  1
  C  C90  1  0.50000000  0.28896622  0.53281097  1
  C  C91  1  0.50000000  0.28818623  0.85899839  1
  C  C92  1  0.50000000  0.34804395  0.53558314  1
  C  C93  1  0.50000000  0.34934412  0.85906806  1
  C  C94  1  0.50000000  0.41094232  0.19552172  1
  C  C95  1  0.50000000  0.40901724  0.52735290  1
  C  C96  1  0.50000000  0.40963851  0.86031804  1
  C  C97  1  0.50000000  0.47041057  0.19415597  1
  C  C98  1  0.50000000  0.46973194  0.52749034  1
  C  C99  1  0.50000000  0.46974943  0.86148255  1
  C  C100  1  0.50000000  0.52958945  0.19415597  1
  C  C101  1  0.50000000  0.53026808  0.52749034  1
  C  C102  1  0.50000000  0.53025059  0.86148255  1
  C  C103  1  0.50000000  0.58905770  0.19552173  1
  C  C104  1  0.50000000  0.59098278  0.52735290  1
  C  C105  1  0.50000000  0.59036151  0.86031804  1
  C  C106  1  0.50000000  0.65195607  0.53558314  1
  C  C107  1  0.50000000  0.65065590  0.85906806  1
  C  C108  1  0.50000000  0.71103379  0.53281098  1
  C  C109  1  0.50000000  0.71181379  0.85899839  1
  C  C110  1  0.50000000  0.25944885  0.55843883  1
  C  C111  1  0.50000000  0.25921068  0.88788236  1
  C  C112  1  0.50000000  0.31830182  0.56121271  1
  C  C113  1  0.50000000  0.31854104  0.88471956  1
  C  C114  1  0.50000000  0.38138136  0.22370252  1
  C  C115  1  0.50000000  0.37880670  0.55741948  1
  C  C116  1  0.50000000  0.37939746  0.88703710  1
  C  C117  1  0.50000000  0.44075115  0.22254004  1
  C  C118  1  0.50000000  0.43924494  0.55508300  1
  C  C119  1  0.50000000  0.43965247  0.88901659  1
  C  C120  1  0.50000000  0.50000001  0.22229314  1
  C  C121  1  0.50000000  0.50000001  0.55532235  1
  C  C122  1  0.50000000  0.50000001  0.88932370  1
  C  C123  1  0.50000000  0.55924886  0.22254004  1
  C  C124  1  0.50000000  0.56075508  0.55508300  1
  C  C125  1  0.50000000  0.56034755  0.88901659  1
  C  C126  1  0.50000000  0.61861866  0.22370252  1
  C  C127  1  0.50000000  0.62119332  0.55741948  1
  C  C128  1  0.50000000  0.62060256  0.88703710  1
  C  C129  1  0.50000000  0.68169820  0.56121271  1
  C  C130  1  0.50000000  0.68145898  0.88471956  1
  C  C131  1  0.50000000  0.74055117  0.55843883  1
  C  C132  1  0.50000000  0.74078934  0.88788236  1
  C  C133  1  0.50000000  0.25921062  0.61216069  1
  C  C134  1  0.50000000  0.25945633  0.94161655  1
  C  C135  1  0.50000000  0.31854405  0.61527555  1
  C  C136  1  0.50000000  0.31830056  0.93880297  1
  C  C137  1  0.50000000  0.38138388  0.27633534  1
  C  C138  1  0.50000000  0.37940443  0.61292397  1
  C  C139  1  0.50000000  0.37879831  0.94253868  1
  C  C140  1  0.50000000  0.44075310  0.27743304  1
  C  C141  1  0.50000000  0.43966218  0.61093724  1
  C  C142  1  0.50000000  0.43923357  0.94487757  1
  C  C143  1  0.50000000  0.50000001  0.27765834  1
  C  C144  1  0.50000000  0.50000001  0.61061954  1
  C  C145  1  0.50000000  0.50000001  0.94462872  1
  C  C146  1  0.50000000  0.55924692  0.27743304  1
  C  C147  1  0.50000000  0.56033784  0.61093724  1
  C  C148  1  0.50000000  0.56076645  0.94487758  1
  C  C149  1  0.50000000  0.61861613  0.27633534  1
  C  C150  1  0.50000000  0.62059559  0.61292397  1
  C  C151  1  0.50000000  0.62120171  0.94253868  1
  C  C152  1  0.50000000  0.68145597  0.61527555  1
  C  C153  1  0.50000000  0.68169946  0.93880297  1
  C  C154  1  0.50000000  0.74078940  0.61216069  1
  C  C155  1  0.50000000  0.74054369  0.94161655  1
  H  H156  1  0.50000000  0.23602145  0.70334927  1
  H  H157  1  0.50000000  0.76397857  0.70334927  1
  H  H158  1  0.50000000  0.23603132  0.79665534  1
  H  H159  1  0.50000000  0.76396870  0.79665534  1
  H  H160  1  0.50000000  0.23644532  0.53717279  1
  H  H161  1  0.50000000  0.23566607  0.86848097  1
  H  H162  1  0.50000000  0.76355470  0.53717279  1
  H  H163  1  0.50000000  0.76433395  0.86848097  1
  H  H164  1  0.50000000  0.23568295  0.63161380  1
  H  H165  1  0.50000000  0.23649221  0.96301228  1
  H  H166  1  0.50000000  0.76431707  0.63161380  1
  H  H167  1  0.50000000  0.76350781  0.96301228  1
  H  H168  1  0.50000000  0.29017122  0.00931945  1
  H  H169  1  0.50000000  0.34428025  0.00467022  1
  H  H170  1  0.50000000  0.65571977  0.00467022  1
  H  H171  1  0.50000000  0.70982880  0.00931945  1
  H  H172  1  0.50000000  0.35702315  0.04874739  1
  H  H173  1  0.50000000  0.35871421  0.36690559  1
  H  H174  1  0.50000000  0.64297686  0.04874738  1
  H  H175  1  0.50000000  0.64128581  0.36690559  1
  H  H176  1  0.50000000  0.35875956  0.13321246  1
  H  H177  1  0.50000000  0.35711857  0.45149726  1
  H  H178  1  0.50000000  0.64124045  0.13321245  1
  H  H179  1  0.50000000  0.64288145  0.45149726  1
  H  H180  1  0.50000000  0.29017964  0.49076607  1
  H  H181  1  0.50000000  0.34420070  0.49536592  1
  H  H182  1  0.50000000  0.65579932  0.49536592  1
  H  H183  1  0.50000000  0.70982037  0.49076607  1
  H  H184  1  0.50000000  0.35793435  0.20401072  1
  H  H185  1  0.50000000  0.64206567  0.20401072  1
  H  H186  1  0.50000000  0.35797046  0.29614183  1
  H  H187  1  0.50000000  0.64202955  0.29614183  1
