# generated using pymatgen
data_H5C24
_symmetry_space_group_name_H-M   'P 1'
_cell_length_a   20.00000000
_cell_length_b   40.19450000
_cell_length_c   25.96047217
_cell_angle_alpha   90.00000000
_cell_angle_beta   90.00000000
_cell_angle_gamma   90.00000000
_symmetry_Int_Tables_number   1
_chemical_formula_structural   H5C24
_chemical_formula_sum   'H30 C144'
_cell_volume   20869.36397565
_cell_formula_units_Z   6
loop_
 _symmetry_equiv_pos_site_id
 _symmetry_equiv_pos_as_xyz
  1  'x, y, z'
loop_
 _atom_site_type_symbol
 _atom_site_label
 _atom_site_symmetry_multiplicity
 _atom_site_fract_x
 _atom_site_fract_y
 _atom_site_fract_z
 _atom_site_occupancy
  C  C0  1  0.50000000  0.28447402  0.10850376  1
  C  C1  1  0.50000000  0.28650372  0.61103086  1
  C  C2  1  0.50000000  0.28391742  0.27664108  1
  C  C3  1  0.50000000  0.28693027  0.77650179  1
  C  C4  1  0.50000000  0.28506958  0.44464457  1
  C  C5  1  0.50000000  0.28610798  0.94198100  1
  C  C6  1  0.50000000  0.31404213  0.13798148  1
  C  C7  1  0.50000000  0.31658167  0.63912609  1
  C  C8  1  0.50000000  0.31375743  0.30560254  1
  C  C9  1  0.50000000  0.31678245  0.80493614  1
  C  C10  1  0.50000000  0.31516415  0.47288938  1
  C  C11  1  0.50000000  0.31577838  0.97102396  1
  C  C12  1  0.50000000  0.28506821  0.05522649  1
  C  C13  1  0.50000000  0.28609754  0.55788156  1
  C  C14  1  0.50000000  0.28392282  0.22325224  1
  C  C15  1  0.50000000  0.28693481  0.72332544  1
  C  C16  1  0.50000000  0.28448947  0.39136332  1
  C  C17  1  0.50000000  0.28650962  0.88882991  1
  C  C18  1  0.50000000  0.34482606  0.11055163  1
  C  C19  1  0.50000000  0.34710029  0.61138415  1
  C  C20  1  0.50000000  0.34426341  0.27775964  1
  C  C21  1  0.50000000  0.34750948  0.77762235  1
  C  C22  1  0.50000000  0.34552403  0.44490766  1
  C  C23  1  0.50000000  0.34667703  0.94386083  1
  C  C24  1  0.50000000  0.37542041  0.13873980  1
  C  C25  1  0.50000000  0.37814800  0.63894533  1
  C  C26  1  0.50000000  0.37508500  0.30577853  1
  C  C27  1  0.50000000  0.37825689  0.80544816  1
  C  C28  1  0.50000000  0.37661955  0.47258230  1
  C  C29  1  0.50000000  0.37737217  0.97199461  1
  C  C30  1  0.50000000  0.31516454  0.02700479  1
  C  C31  1  0.50000000  0.31577299  0.52885660  1
  C  C32  1  0.50000000  0.31375731  0.19427782  1
  C  C33  1  0.50000000  0.31679370  0.69490901  1
  C  C34  1  0.50000000  0.31405743  0.36189949  1
  C  C35  1  0.50000000  0.31657923  0.86072194  1
  C  C36  1  0.50000000  0.34551872  0.05500172  1
  C  C37  1  0.50000000  0.34667860  0.55600618  1
  C  C38  1  0.50000000  0.34426761  0.22212301  1
  C  C39  1  0.50000000  0.34752101  0.72223799  1
  C  C40  1  0.50000000  0.34483614  0.38934935  1
  C  C41  1  0.50000000  0.34709842  0.88847892  1
  C  C42  1  0.50000000  0.40604105  0.11102996  1
  C  C43  1  0.50000000  0.40860380  0.61102051  1
  C  C44  1  0.50000000  0.40545652  0.27779788  1
  C  C45  1  0.50000000  0.40887861  0.77780378  1
  C  C46  1  0.50000000  0.40691245  0.44461588  1
  C  C47  1  0.50000000  0.40828648  0.94456186  1
  C  C48  1  0.50000000  0.43626277  0.13901158  1
  C  C49  1  0.50000000  0.43953285  0.63850613  1
  C  C50  1  0.50000000  0.43589822  0.30561415  1
  C  C51  1  0.50000000  0.43950703  0.80575686  1
  C  C52  1  0.50000000  0.43785254  0.47207018  1
  C  C53  1  0.50000000  0.43883566  0.97252538  1
  C  C54  1  0.50000000  0.37661304  0.02731215  1
  C  C55  1  0.50000000  0.37738221  0.52788891  1
  C  C56  1  0.50000000  0.37509778  0.19412357  1
  C  C57  1  0.50000000  0.37827095  0.69441883  1
  C  C58  1  0.50000000  0.37542656  0.36115110  1
  C  C59  1  0.50000000  0.37813687  0.86091880  1
  C  C60  1  0.50000000  0.40690671  0.05528030  1
  C  C61  1  0.50000000  0.40830640  0.55531116  1
  C  C62  1  0.50000000  0.40547496  0.22202888  1
  C  C63  1  0.50000000  0.40888379  0.72207604  1
  C  C64  1  0.50000000  0.40605234  0.38885639  1
  C  C65  1  0.50000000  0.40858890  0.88885271  1
  C  C66  1  0.50000000  0.46717805  0.11161920  1
  C  C67  1  0.50000000  0.47020364  0.61069882  1
  C  C68  1  0.50000000  0.46637926  0.27736052  1
  C  C69  1  0.50000000  0.47014394  0.77775038  1
  C  C70  1  0.50000000  0.46832811  0.44379629  1
  C  C71  1  0.50000000  0.47028492  0.94521917  1
  C  C72  1  0.50000000  0.49686735  0.14084335  1
  C  C73  1  0.50000000  0.50084179  0.63903646  1
  C  C74  1  0.50000000  0.49695338  0.30395639  1
  C  C75  1  0.50000000  0.50081797  0.80538180  1
  C  C76  1  0.50000000  0.49957369  0.47059011  1
  C  C77  1  0.50000000  0.50090820  0.97307083  1
  C  C78  1  0.50000000  0.43783657  0.02780530  1
  C  C79  1  0.50000000  0.43887558  0.52736148  1
  C  C80  1  0.50000000  0.43591040  0.19423738  1
  C  C81  1  0.50000000  0.43951474  0.69415013  1
  C  C82  1  0.50000000  0.43626810  0.36084564  1
  C  C83  1  0.50000000  0.43952892  0.86140747  1
  C  C84  1  0.50000000  0.46830904  0.05607091  1
  C  C85  1  0.50000000  0.47029138  0.55469555  1
  C  C86  1  0.50000000  0.46638600  0.22250958  1
  C  C87  1  0.50000000  0.47013725  0.72218275  1
  C  C88  1  0.50000000  0.46719192  0.38823993  1
  C  C89  1  0.50000000  0.47020693  0.88921640  1
  C  C90  1  0.50000000  0.52692297  0.11433771  1
  C  C91  1  0.50000000  0.53163221  0.61210950  1
  C  C92  1  0.50000000  0.52715952  0.27632141  1
  C  C93  1  0.50000000  0.53150726  0.77757969  1
  C  C94  1  0.50000000  0.52785090  0.43797182  1
  C  C95  1  0.50000000  0.53210335  0.94366754  1
  C  C96  1  0.50000000  0.56239731  0.64043649  1
  C  C97  1  0.50000000  0.56236894  0.80461117  1
  C  C98  1  0.50000000  0.56371598  0.96558758  1
  C  C99  1  0.50000000  0.49954406  0.02928815  1
  C  C100  1  0.50000000  0.50087978  0.52683518  1
  C  C101  1  0.50000000  0.49696297  0.19591489  1
  C  C102  1  0.50000000  0.50080966  0.69455634  1
  C  C103  1  0.50000000  0.49688734  0.35902962  1
  C  C104  1  0.50000000  0.50086183  0.86090954  1
  C  C105  1  0.50000000  0.52780339  0.06189528  1
  C  C106  1  0.50000000  0.53207129  0.55629281  1
  C  C107  1  0.50000000  0.52717626  0.22355537  1
  C  C108  1  0.50000000  0.53149100  0.72236875  1
  C  C109  1  0.50000000  0.52695403  0.38552333  1
  C  C110  1  0.50000000  0.53165503  0.88785228  1
  C  C111  1  0.50000000  0.59375594  0.61498900  1
  C  C112  1  0.50000000  0.59341411  0.77749528  1
  C  C113  1  0.50000000  0.59404494  0.93948340  1
  C  C114  1  0.50000000  0.62456563  0.64117254  1
  C  C115  1  0.50000000  0.62441234  0.80407225  1
  C  C116  1  0.50000000  0.62387312  0.96752154  1
  C  C117  1  0.50000000  0.56367372  0.53437308  1
  C  C118  1  0.50000000  0.56235177  0.69534938  1
  C  C119  1  0.50000000  0.56242121  0.85952344  1
  C  C120  1  0.50000000  0.59400261  0.56047080  1
  C  C121  1  0.50000000  0.59340058  0.72247171  1
  C  C122  1  0.50000000  0.59379033  0.88496017  1
  C  C123  1  0.50000000  0.65512521  0.61289832  1
  C  C124  1  0.50000000  0.65552977  0.77738809  1
  C  C125  1  0.50000000  0.65475870  0.94241808  1
  C  C126  1  0.50000000  0.68628848  0.63901093  1
  C  C127  1  0.50000000  0.68625100  0.80492494  1
  C  C128  1  0.50000000  0.68518787  0.97014251  1
  C  C129  1  0.50000000  0.62381195  0.53241468  1
  C  C130  1  0.50000000  0.62438757  0.69588025  1
  C  C131  1  0.50000000  0.62459943  0.85877969  1
  C  C132  1  0.50000000  0.65469681  0.55750616  1
  C  C133  1  0.50000000  0.65551781  0.72253772  1
  C  C134  1  0.50000000  0.65517635  0.88702406  1
  C  C135  1  0.50000000  0.71578678  0.60990916  1
  C  C136  1  0.50000000  0.71602920  0.77655243  1
  C  C137  1  0.50000000  0.71523395  0.94400615  1
  C  C138  1  0.50000000  0.68512062  0.52977384  1
  C  C139  1  0.50000000  0.68622903  0.69496561  1
  C  C140  1  0.50000000  0.68633194  0.86087807  1
  C  C141  1  0.50000000  0.71518152  0.55586617  1
  C  C142  1  0.50000000  0.71602008  0.72330005  1
  C  C143  1  0.50000000  0.71583468  0.88996915  1
  H  H144  1  0.50000000  0.26018991  0.12746734  1
  H  H145  1  0.50000000  0.26263341  0.63117374  1
  H  H146  1  0.50000000  0.25992504  0.29651212  1
  H  H147  1  0.50000000  0.26295433  0.79630149  1
  H  H148  1  0.50000000  0.26123745  0.46489090  1
  H  H149  1  0.50000000  0.26194635  0.96129345  1
  H  H150  1  0.50000000  0.26125953  0.03492264  1
  H  H151  1  0.50000000  0.26193332  0.53857231  1
  H  H152  1  0.50000000  0.25993514  0.20337696  1
  H  H153  1  0.50000000  0.26300965  0.70337371  1
  H  H154  1  0.50000000  0.26022994  0.37231912  1
  H  H155  1  0.50000000  0.26264269  0.86868906  1
  H  H156  1  0.50000000  0.73992345  0.62930579  1
  H  H157  1  0.50000000  0.73992351  0.79660412  1
  H  H158  1  0.50000000  0.73876077  0.96531757  1
  H  H159  1  0.50000000  0.73867514  0.53446470  1
  H  H160  1  0.50000000  0.73989885  0.70319630  1
  H  H161  1  0.50000000  0.74000573  0.87066643  1
  H  H162  1  0.50000000  0.68429037  0.48758774  1
  H  H163  1  0.50000000  0.62293985  0.49016541  1
  H  H164  1  0.50000000  0.55069328  0.13458026  1
  H  H165  1  0.50000000  0.55101873  0.29633666  1
  H  H166  1  0.50000000  0.55292919  0.45113515  1
  H  H167  1  0.50000000  0.56836570  0.00590315  1
  H  H168  1  0.50000000  0.55286076  0.04868417  1
  H  H169  1  0.50000000  0.55107110  0.20361574  1
  H  H170  1  0.50000000  0.55071894  0.36525128  1
  H  H171  1  0.50000000  0.62302558  0.00977895  1
  H  H172  1  0.50000000  0.56827024  0.49405058  1
  H  H173  1  0.50000000  0.68435603  0.01232967  1
