# generated using pymatgen
data_H11C39
_symmetry_space_group_name_H-M   'P 1'
_cell_length_a   10.00000000
_cell_length_b   41.10890000
_cell_length_c   26.06615323
_cell_angle_alpha   90.00000000
_cell_angle_beta   90.00000000
_cell_angle_gamma   90.00000000
_symmetry_Int_Tables_number   1
_chemical_formula_structural   H11C39
_chemical_formula_sum   'H44 C156'
_cell_volume   10715.50886571
_cell_formula_units_Z   4
loop_
 _symmetry_equiv_pos_site_id
 _symmetry_equiv_pos_as_xyz
  1  'x, y, z'
loop_
 _atom_site_type_symbol
 _atom_site_label
 _atom_site_symmetry_multiplicity
 _atom_site_fract_x
 _atom_site_fract_y
 _atom_site_fract_z
 _atom_site_occupancy
  C  C0  1  0.50000000  0.28625258  0.30580924  1
  C  C1  1  0.50000000  0.29069332  0.63900160  1
  C  C2  1  0.50000000  0.28963342  0.97092863  1
  C  C3  1  0.50000000  0.34610451  0.30577598  1
  C  C4  1  0.50000000  0.35085873  0.63855569  1
  C  C5  1  0.50000000  0.34997674  0.97253651  1
  C  C6  1  0.50000000  0.40576164  0.30415760  1
  C  C7  1  0.50000000  0.41057185  0.63905332  1
  C  C8  1  0.50000000  0.41053103  0.97337396  1
  C  C9  1  0.50000000  0.47058559  0.64050303  1
  C  C10  1  0.50000000  0.47211975  0.96537151  1
  C  C11  1  0.50000000  0.53129471  0.64178062  1
  C  C12  1  0.50000000  0.53128058  0.96655794  1
  C  C13  1  0.50000000  0.59125636  0.64106234  1
  C  C14  1  0.50000000  0.59136872  0.96758831  1
  C  C15  1  0.50000000  0.65127176  0.64048843  1
  C  C16  1  0.50000000  0.65127788  0.96776735  1
  C  C17  1  0.50000000  0.71155790  0.30845924  1
  C  C18  1  0.50000000  0.71115520  0.64004340  1
  C  C19  1  0.50000000  0.71205794  0.97056523  1
  C  C20  1  0.50000000  0.28861705  0.02668693  1
  C  C21  1  0.50000000  0.28677856  0.36189681  1
  C  C22  1  0.50000000  0.29086100  0.69478907  1
  C  C23  1  0.50000000  0.34869022  0.02756175  1
  C  C24  1  0.50000000  0.34661508  0.36075994  1
  C  C25  1  0.50000000  0.35087056  0.69404955  1
  C  C26  1  0.50000000  0.40893519  0.02934456  1
  C  C27  1  0.50000000  0.40590077  0.35892486  1
  C  C28  1  0.50000000  0.41054492  0.69440792  1
  C  C29  1  0.50000000  0.47051713  0.69543174  1
  C  C30  1  0.50000000  0.53106985  0.69622780  1
  C  C31  1  0.50000000  0.59126183  0.69568529  1
  C  C32  1  0.50000000  0.65127375  0.69533209  1
  C  C33  1  0.50000000  0.71308336  0.02393786  1
  C  C34  1  0.50000000  0.71220168  0.36145913  1
  C  C35  1  0.50000000  0.71132425  0.69510078  1
  C  C36  1  0.50000000  0.25897279  0.05480383  1
  C  C37  1  0.50000000  0.25799461  0.39190744  1
  C  C38  1  0.50000000  0.26171025  0.72336652  1
  C  C39  1  0.50000000  0.31810029  0.05499901  1
  C  C40  1  0.50000000  0.31694873  0.38925166  1
  C  C41  1  0.50000000  0.32086163  0.72216091  1
  C  C42  1  0.50000000  0.37827518  0.05610023  1
  C  C43  1  0.50000000  0.37687727  0.38809439  1
  C  C44  1  0.50000000  0.38063574  0.72207816  1
  C  C45  1  0.50000000  0.43654355  0.06232436  1
  C  C46  1  0.50000000  0.43544093  0.38558672  1
  C  C47  1  0.50000000  0.44047789  0.72245861  1
  C  C48  1  0.50000000  0.50070616  0.72274454  1
  C  C49  1  0.50000000  0.56118833  0.72285772  1
  C  C50  1  0.50000000  0.62129234  0.72264688  1
  C  C51  1  0.50000000  0.68132417  0.72260334  1
  C  C52  1  0.50000000  0.74112941  0.05482414  1
  C  C53  1  0.50000000  0.74064317  0.39206101  1
  C  C54  1  0.50000000  0.74071763  0.72361540  1
  C  C55  1  0.50000000  0.25800991  0.10782112  1
  C  C56  1  0.50000000  0.25892816  0.44493529  1
  C  C57  1  0.50000000  0.26171932  0.77636916  1
  C  C58  1  0.50000000  0.31695229  0.11055522  1
  C  C59  1  0.50000000  0.31806539  0.44479587  1
  C  C60  1  0.50000000  0.32085858  0.77759665  1
  C  C61  1  0.50000000  0.37687904  0.11175476  1
  C  C62  1  0.50000000  0.37821145  0.44375062  1
  C  C63  1  0.50000000  0.38063624  0.77776414  1
  C  C64  1  0.50000000  0.43542148  0.11450002  1
  C  C65  1  0.50000000  0.43646414  0.43774483  1
  C  C66  1  0.50000000  0.44047421  0.77748037  1
  C  C67  1  0.50000000  0.50071022  0.77736232  1
  C  C68  1  0.50000000  0.56119031  0.77726000  1
  C  C69  1  0.50000000  0.62129548  0.77744319  1
  C  C70  1  0.50000000  0.68132851  0.77745955  1
  C  C71  1  0.50000000  0.74083636  0.10802692  1
  C  C72  1  0.50000000  0.74121358  0.44521225  1
  C  C73  1  0.50000000  0.74072434  0.77637418  1
  C  C74  1  0.50000000  0.28676974  0.13789043  1
  C  C75  1  0.50000000  0.28857494  0.47306216  1
  C  C76  1  0.50000000  0.29086773  0.80496002  1
  C  C77  1  0.50000000  0.34661162  0.13905982  1
  C  C78  1  0.50000000  0.34863972  0.47226597  1
  C  C79  1  0.50000000  0.35086193  0.80573510  1
  C  C80  1  0.50000000  0.40585607  0.14104954  1
  C  C81  1  0.50000000  0.40883833  0.47057286  1
  C  C82  1  0.50000000  0.41053525  0.80547565  1
  C  C83  1  0.50000000  0.47051694  0.80456525  1
  C  C84  1  0.50000000  0.53107292  0.80390324  1
  C  C85  1  0.50000000  0.59126703  0.80441923  1
  C  C86  1  0.50000000  0.65128192  0.80474218  1
  C  C87  1  0.50000000  0.71254478  0.13897440  1
  C  C88  1  0.50000000  0.71321954  0.47623969  1
  C  C89  1  0.50000000  0.71134267  0.80493186  1
  C  C90  1  0.50000000  0.28623220  0.19398912  1
  C  C91  1  0.50000000  0.28959675  0.52883287  1
  C  C92  1  0.50000000  0.29073196  0.86074106  1
  C  C93  1  0.50000000  0.34609843  0.19403813  1
  C  C94  1  0.50000000  0.34994486  0.52729583  1
  C  C95  1  0.50000000  0.35087571  0.86123369  1
  C  C96  1  0.50000000  0.40576268  0.19584979  1
  C  C97  1  0.50000000  0.41050009  0.52652273  1
  C  C98  1  0.50000000  0.41058111  0.86081543  1
  C  C99  1  0.50000000  0.47215605  0.53455881  1
  C  C100  1  0.50000000  0.47060442  0.85950781  1
  C  C101  1  0.50000000  0.53129151  0.53362665  1
  C  C102  1  0.50000000  0.53130790  0.85835661  1
  C  C103  1  0.50000000  0.59135647  0.53257920  1
  C  C104  1  0.50000000  0.59126627  0.85905060  1
  C  C105  1  0.50000000  0.65128144  0.53232826  1
  C  C106  1  0.50000000  0.65128173  0.85958397  1
  C  C107  1  0.50000000  0.71196144  0.19194576  1
  C  C108  1  0.50000000  0.71211753  0.52956970  1
  C  C109  1  0.50000000  0.71117083  0.85999954  1
  C  C110  1  0.50000000  0.25702178  0.22334670  1
  C  C111  1  0.50000000  0.26063584  0.55816060  1
  C  C112  1  0.50000000  0.26122276  0.88869983  1
  C  C113  1  0.50000000  0.31601557  0.22202256  1
  C  C114  1  0.50000000  0.31996239  0.55571358  1
  C  C115  1  0.50000000  0.32043711  0.88871565  1
  C  C116  1  0.50000000  0.37580794  0.22251567  1
  C  C117  1  0.50000000  0.38066439  0.55452281  1
  C  C118  1  0.50000000  0.38065789  0.88916476  1
  C  C119  1  0.50000000  0.43531297  0.22381226  1
  C  C120  1  0.50000000  0.44117982  0.55620347  1
  C  C121  1  0.50000000  0.44068846  0.88794358  1
  C  C122  1  0.50000000  0.50180557  0.56097962  1
  C  C123  1  0.50000000  0.50125277  0.88481028  1
  C  C124  1  0.50000000  0.56130395  0.55902732  1
  C  C125  1  0.50000000  0.56121250  0.88587086  1
  C  C126  1  0.50000000  0.62105389  0.55866863  1
  C  C127  1  0.50000000  0.62125417  0.88624550  1
  C  C128  1  0.50000000  0.68106173  0.55729219  1
  C  C129  1  0.50000000  0.68144405  0.88710509  1
  C  C130  1  0.50000000  0.73981103  0.22398129  1
  C  C131  1  0.50000000  0.74139666  0.55928154  1
  C  C132  1  0.50000000  0.74099103  0.88857248  1
  C  C133  1  0.50000000  0.25703487  0.27649444  1
  C  C134  1  0.50000000  0.26116845  0.61104379  1
  C  C135  1  0.50000000  0.26068785  0.94155737  1
  C  C136  1  0.50000000  0.31602439  0.27777011  1
  C  C137  1  0.50000000  0.32040143  0.61105426  1
  C  C138  1  0.50000000  0.32000330  0.94407244  1
  C  C139  1  0.50000000  0.37582544  0.27745324  1
  C  C140  1  0.50000000  0.38064926  0.61067934  1
  C  C141  1  0.50000000  0.38069088  0.94534433  1
  C  C142  1  0.50000000  0.43530938  0.27624279  1
  C  C143  1  0.50000000  0.44069303  0.61198780  1
  C  C144  1  0.50000000  0.44117803  0.94367137  1
  C  C145  1  0.50000000  0.50124485  0.61527195  1
  C  C146  1  0.50000000  0.50181293  0.93910954  1
  C  C147  1  0.50000000  0.56119813  0.61428343  1
  C  C148  1  0.50000000  0.56130807  0.94114616  1
  C  C149  1  0.50000000  0.62124018  0.61385363  1
  C  C150  1  0.50000000  0.62105415  0.94143963  1
  C  C151  1  0.50000000  0.68142901  0.61295381  1
  C  C152  1  0.50000000  0.68104915  0.94276746  1
  C  C153  1  0.50000000  0.73958526  0.27684485  1
  C  C154  1  0.50000000  0.74101088  0.61156056  1
  C  C155  1  0.50000000  0.74133586  0.94084851  1
  H  H156  1  0.50000000  0.23577534  0.03435537  1
  H  H157  1  0.50000000  0.23420668  0.37302718  1
  H  H158  1  0.50000000  0.23823701  0.70372271  1
  H  H159  1  0.50000000  0.76502513  0.03618303  1
  H  H160  1  0.50000000  0.76421962  0.37242957  1
  H  H161  1  0.50000000  0.76411277  0.70374548  1
  H  H162  1  0.50000000  0.23417090  0.12650975  1
  H  H163  1  0.50000000  0.23574317  0.46544816  1
  H  H164  1  0.50000000  0.23823514  0.79595022  1
  H  H165  1  0.50000000  0.76454845  0.12723995  1
  H  H166  1  0.50000000  0.76522688  0.46347772  1
  H  H167  1  0.50000000  0.76413729  0.79618521  1
  H  H168  1  0.50000000  0.23343174  0.20387554  1
  H  H169  1  0.50000000  0.23698860  0.53893459  1
  H  H170  1  0.50000000  0.23794432  0.86848501  1
  H  H171  1  0.50000000  0.76376725  0.20549906  1
  H  H172  1  0.50000000  0.76480886  0.53940398  1
  H  H173  1  0.50000000  0.76425302  0.86833716  1
  H  H174  1  0.50000000  0.23346387  0.29603783  1
  H  H175  1  0.50000000  0.23792984  0.63140103  1
  H  H176  1  0.50000000  0.23697249  0.96054394  1
  H  H177  1  0.50000000  0.76336363  0.29590081  1
  H  H178  1  0.50000000  0.76418704  0.63205247  1
  H  H179  1  0.50000000  0.76480272  0.96055057  1
  H  H180  1  0.50000000  0.47638648  0.00570937  1
  H  H181  1  0.50000000  0.53063341  0.00863968  1
  H  H182  1  0.50000000  0.59124238  0.00967513  1
  H  H183  1  0.50000000  0.65019680  0.00972915  1
  H  H184  1  0.50000000  0.68752824  0.29014908  1
  H  H185  1  0.50000000  0.68983623  0.04427714  1
  H  H186  1  0.50000000  0.68858564  0.38101235  1
  H  H187  1  0.50000000  0.46109652  0.04909282  1
  H  H188  1  0.50000000  0.45866094  0.36537806  1
  H  H189  1  0.50000000  0.45857051  0.13494874  1
  H  H190  1  0.50000000  0.46092428  0.45129848  1
  H  H191  1  0.50000000  0.68886753  0.11963913  1
  H  H192  1  0.50000000  0.68997576  0.45592884  1
  H  H193  1  0.50000000  0.47657810  0.49421146  1
  H  H194  1  0.50000000  0.53064924  0.49159261  1
  H  H195  1  0.50000000  0.59122439  0.49051838  1
  H  H196  1  0.50000000  0.65017234  0.49038570  1
  H  H197  1  0.50000000  0.68792204  0.21025887  1
  H  H198  1  0.50000000  0.45873113  0.20415522  1
  H  H199  1  0.50000000  0.45868498  0.29604764  1
