# generated using pymatgen
data_H8C39
_symmetry_space_group_name_H-M   'P 1'
_cell_length_a   10.00000000
_cell_length_b   41.10890000
_cell_length_c   25.94749961
_cell_angle_alpha   90.00000000
_cell_angle_beta   90.00000000
_cell_angle_gamma   90.00000000
_symmetry_Int_Tables_number   1
_chemical_formula_structural   H8C39
_chemical_formula_sum   'H32 C156'
_cell_volume   10666.73166911
_cell_formula_units_Z   4
loop_
 _symmetry_equiv_pos_site_id
 _symmetry_equiv_pos_as_xyz
  1  'x, y, z'
loop_
 _atom_site_type_symbol
 _atom_site_label
 _atom_site_symmetry_multiplicity
 _atom_site_fract_x
 _atom_site_fract_y
 _atom_site_fract_z
 _atom_site_occupancy
  C  C0  1  0.50000000  0.28782236  0.30569516  1
  C  C1  1  0.50000000  0.29056568  0.63924888  1
  C  C2  1  0.50000000  0.28977784  0.97103706  1
  C  C3  1  0.50000000  0.34779133  0.30580658  1
  C  C4  1  0.50000000  0.35076431  0.63905407  1
  C  C5  1  0.50000000  0.35000514  0.97203325  1
  C  C6  1  0.50000000  0.40728762  0.30565972  1
  C  C7  1  0.50000000  0.41081563  0.63852754  1
  C  C8  1  0.50000000  0.41017121  0.97258009  1
  C  C9  1  0.50000000  0.46699593  0.30404248  1
  C  C10  1  0.50000000  0.47082916  0.63899574  1
  C  C11  1  0.50000000  0.47091683  0.97322143  1
  C  C12  1  0.50000000  0.53105813  0.64038498  1
  C  C13  1  0.50000000  0.53240210  0.96558304  1
  C  C14  1  0.50000000  0.59180968  0.64143233  1
  C  C15  1  0.50000000  0.59129327  0.96735512  1
  C  C16  1  0.50000000  0.65180049  0.64011209  1
  C  C17  1  0.50000000  0.65108962  0.96910720  1
  C  C18  1  0.50000000  0.71216922  0.63861481  1
  C  C19  1  0.50000000  0.71103235  0.97101847  1
  C  C20  1  0.50000000  0.28918723  0.02698845  1
  C  C21  1  0.50000000  0.28811037  0.36195667  1
  C  C22  1  0.50000000  0.29075553  0.69500030  1
  C  C23  1  0.50000000  0.34927509  0.02732479  1
  C  C24  1  0.50000000  0.34812000  0.36118341  1
  C  C25  1  0.50000000  0.35086945  0.69441430  1
  C  C26  1  0.50000000  0.40916940  0.02786296  1
  C  C27  1  0.50000000  0.40764524  0.36089490  1
  C  C28  1  0.50000000  0.41077593  0.69418881  1
  C  C29  1  0.50000000  0.46952427  0.02937140  1
  C  C30  1  0.50000000  0.46693071  0.35905729  1
  C  C31  1  0.50000000  0.47075445  0.69457053  1
  C  C32  1  0.50000000  0.53097245  0.69538807  1
  C  C33  1  0.50000000  0.59165824  0.69597171  1
  C  C34  1  0.50000000  0.65189140  0.69521626  1
  C  C35  1  0.50000000  0.71221983  0.69479625  1
  C  C36  1  0.50000000  0.25973954  0.05524749  1
  C  C37  1  0.50000000  0.25919498  0.39147167  1
  C  C38  1  0.50000000  0.26148175  0.72342188  1
  C  C39  1  0.50000000  0.31887752  0.05500391  1
  C  C40  1  0.50000000  0.31821204  0.38940161  1
  C  C41  1  0.50000000  0.32077736  0.72230289  1
  C  C42  1  0.50000000  0.37892278  0.05532920  1
  C  C43  1  0.50000000  0.37808476  0.38892135  1
  C  C44  1  0.50000000  0.38085541  0.72213019  1
  C  C45  1  0.50000000  0.43896121  0.05614566  1
  C  C46  1  0.50000000  0.43787263  0.38830696  1
  C  C47  1  0.50000000  0.44080217  0.72220888  1
  C  C48  1  0.50000000  0.49717033  0.06199319  1
  C  C49  1  0.50000000  0.49636055  0.38556654  1
  C  C50  1  0.50000000  0.50074426  0.72242512  1
  C  C51  1  0.50000000  0.56120155  0.72254686  1
  C  C52  1  0.50000000  0.62198381  0.72256014  1
  C  C53  1  0.50000000  0.68220615  0.72241181  1
  C  C54  1  0.50000000  0.74131402  0.72332398  1
  C  C55  1  0.50000000  0.25920006  0.10851946  1
  C  C56  1  0.50000000  0.25974263  0.44474288  1
  C  C57  1  0.50000000  0.26147558  0.77652621  1
  C  C58  1  0.50000000  0.31821771  0.11057040  1
  C  C59  1  0.50000000  0.31887984  0.44497929  1
  C  C60  1  0.50000000  0.32078552  0.77765354  1
  C  C61  1  0.50000000  0.37808679  0.11106105  1
  C  C62  1  0.50000000  0.37891993  0.44465449  1
  C  C63  1  0.50000000  0.38087303  0.77790322  1
  C  C64  1  0.50000000  0.43788065  0.11169223  1
  C  C65  1  0.50000000  0.43895647  0.44385079  1
  C  C66  1  0.50000000  0.44080515  0.77777792  1
  C  C67  1  0.50000000  0.49636588  0.11443491  1
  C  C68  1  0.50000000  0.49716658  0.43800662  1
  C  C69  1  0.50000000  0.50074303  0.77756111  1
  C  C70  1  0.50000000  0.56119786  0.77744655  1
  C  C71  1  0.50000000  0.62198152  0.77745231  1
  C  C72  1  0.50000000  0.68220627  0.77762528  1
  C  C73  1  0.50000000  0.74131690  0.77670849  1
  C  C74  1  0.50000000  0.28812007  0.13801772  1
  C  C75  1  0.50000000  0.28919227  0.47300042  1
  C  C76  1  0.50000000  0.29075149  0.80495663  1
  C  C77  1  0.50000000  0.34812228  0.13878985  1
  C  C78  1  0.50000000  0.34927317  0.47266125  1
  C  C79  1  0.50000000  0.35088071  0.80555770  1
  C  C80  1  0.50000000  0.40764883  0.13908861  1
  C  C81  1  0.50000000  0.40916673  0.47213051  1
  C  C82  1  0.50000000  0.41078988  0.80580898  1
  C  C83  1  0.50000000  0.46693926  0.14095180  1
  C  C84  1  0.50000000  0.46951896  0.47062496  1
  C  C85  1  0.50000000  0.47075594  0.80542210  1
  C  C86  1  0.50000000  0.53096722  0.80460726  1
  C  C87  1  0.50000000  0.59165277  0.80402693  1
  C  C88  1  0.50000000  0.65188712  0.80480650  1
  C  C89  1  0.50000000  0.71222307  0.80524329  1
  C  C90  1  0.50000000  0.28782724  0.19428187  1
  C  C91  1  0.50000000  0.28978164  0.52894382  1
  C  C92  1  0.50000000  0.29055482  0.86071093  1
  C  C93  1  0.50000000  0.34779239  0.19416945  1
  C  C94  1  0.50000000  0.35001210  0.52795474  1
  C  C95  1  0.50000000  0.35076109  0.86091589  1
  C  C96  1  0.50000000  0.40729246  0.19432354  1
  C  C97  1  0.50000000  0.41017871  0.52741488  1
  C  C98  1  0.50000000  0.41082025  0.86145933  1
  C  C99  1  0.50000000  0.46700512  0.19597099  1
  C  C100  1  0.50000000  0.47091790  0.52677198  1
  C  C101  1  0.50000000  0.47082522  0.86099547  1
  C  C102  1  0.50000000  0.53241537  0.53441455  1
  C  C103  1  0.50000000  0.53104975  0.85961279  1
  C  C104  1  0.50000000  0.59131009  0.53265001  1
  C  C105  1  0.50000000  0.59180186  0.85856660  1
  C  C106  1  0.50000000  0.65111319  0.53089746  1
  C  C107  1  0.50000000  0.65179434  0.85990639  1
  C  C108  1  0.50000000  0.71106329  0.52904297  1
  C  C109  1  0.50000000  0.71216670  0.86143116  1
  C  C110  1  0.50000000  0.25864881  0.22329956  1
  C  C111  1  0.50000000  0.26073436  0.55800127  1
  C  C112  1  0.50000000  0.26112121  0.88883899  1
  C  C113  1  0.50000000  0.31764936  0.22216714  1
  C  C114  1  0.50000000  0.31999236  0.55610468  1
  C  C115  1  0.50000000  0.32041199  0.88846051  1
  C  C116  1  0.50000000  0.37750070  0.22213325  1
  C  C117  1  0.50000000  0.38026298  0.55538787  1
  C  C118  1  0.50000000  0.38059247  0.88892429  1
  C  C119  1  0.50000000  0.43708901  0.22258482  1
  C  C120  1  0.50000000  0.44095283  0.55471578  1
  C  C121  1  0.50000000  0.44086534  0.88933785  1
  C  C122  1  0.50000000  0.49656792  0.22363827  1
  C  C123  1  0.50000000  0.50140174  0.55624081  1
  C  C124  1  0.50000000  0.50090491  0.88793541  1
  C  C125  1  0.50000000  0.56206513  0.56053290  1
  C  C126  1  0.50000000  0.56163538  0.88491692  1
  C  C127  1  0.50000000  0.62151693  0.55793514  1
  C  C128  1  0.50000000  0.62170666  0.88645034  1
  C  C129  1  0.50000000  0.68123316  0.55660556  1
  C  C130  1  0.50000000  0.68177538  0.88791669  1
  C  C131  1  0.50000000  0.74041390  0.55535589  1
  C  C132  1  0.50000000  0.74099703  0.89065317  1
  C  C133  1  0.50000000  0.25864563  0.27668107  1
  C  C134  1  0.50000000  0.26112734  0.61112658  1
  C  C135  1  0.50000000  0.26072761  0.94196784  1
  C  C136  1  0.50000000  0.31764762  0.27781679  1
  C  C137  1  0.50000000  0.32042181  0.61150255  1
  C  C138  1  0.50000000  0.31998701  0.94387021  1
  C  C139  1  0.50000000  0.37749841  0.27784257  1
  C  C140  1  0.50000000  0.38059058  0.61106521  1
  C  C141  1  0.50000000  0.38025605  0.94460956  1
  C  C142  1  0.50000000  0.43708625  0.27741431  1
  C  C143  1  0.50000000  0.44086690  0.61065787  1
  C  C144  1  0.50000000  0.44094824  0.94528186  1
  C  C145  1  0.50000000  0.49656220  0.27639500  1
  C  C146  1  0.50000000  0.50091339  0.61205645  1
  C  C147  1  0.50000000  0.50139421  0.94374757  1
  C  C148  1  0.50000000  0.56164532  0.61508259  1
  C  C149  1  0.50000000  0.56205146  0.93946888  1
  C  C150  1  0.50000000  0.62171510  0.61355653  1
  C  C151  1  0.50000000  0.62149812  0.94206837  1
  C  C152  1  0.50000000  0.68178509  0.61210994  1
  C  C153  1  0.50000000  0.68121406  0.94342085  1
  C  C154  1  0.50000000  0.74100906  0.60942746  1
  C  C155  1  0.50000000  0.74039111  0.94472843  1
  H  H156  1  0.50000000  0.23643917  0.03498389  1
  H  H157  1  0.50000000  0.23550932  0.37235927  1
  H  H158  1  0.50000000  0.23810247  0.70342665  1
  H  H159  1  0.50000000  0.76470396  0.70331041  1
  H  H160  1  0.50000000  0.23551536  0.12764560  1
  H  H161  1  0.50000000  0.23644670  0.46502274  1
  H  H162  1  0.50000000  0.23807812  0.79645639  1
  H  H163  1  0.50000000  0.76471008  0.79671750  1
  H  H164  1  0.50000000  0.23521340  0.20337679  1
  H  H165  1  0.50000000  0.23711216  0.53868422  1
  H  H166  1  0.50000000  0.23780481  0.86863509  1
  H  H167  1  0.50000000  0.76345392  0.53410366  1
  H  H168  1  0.50000000  0.76463803  0.87139206  1
  H  H169  1  0.50000000  0.23521084  0.29660684  1
  H  H170  1  0.50000000  0.23781779  0.63136227  1
  H  H171  1  0.50000000  0.23709929  0.96129611  1
  H  H172  1  0.50000000  0.76463589  0.62873084  1
  H  H173  1  0.50000000  0.76342857  0.96599426  1
  H  H174  1  0.50000000  0.53691694  0.00593546  1
  H  H175  1  0.50000000  0.59061414  0.00963290  1
  H  H176  1  0.50000000  0.65072781  0.01133761  1
  H  H177  1  0.50000000  0.71027677  0.01326296  1
  H  H178  1  0.50000000  0.52160888  0.04853203  1
  H  H179  1  0.50000000  0.51963431  0.36535707  1
  H  H180  1  0.50000000  0.51963635  0.13465293  1
  H  H181  1  0.50000000  0.52160409  0.45147459  1
  H  H182  1  0.50000000  0.53692866  0.49406135  1
  H  H183  1  0.50000000  0.59062610  0.49037191  1
  H  H184  1  0.50000000  0.65076592  0.48866094  1
  H  H185  1  0.50000000  0.71033175  0.48680027  1
  H  H186  1  0.50000000  0.51991184  0.20364910  1
  H  H187  1  0.50000000  0.51989695  0.29640819  1
