# generated using pymatgen
data_H5C23
_symmetry_space_group_name_H-M   'P 1'
_cell_length_a   20.00000000
_cell_length_b   37.22700000
_cell_length_c   26.05093819
_cell_angle_alpha   90.00000000
_cell_angle_beta   90.00000000
_cell_angle_gamma   90.00000000
_symmetry_Int_Tables_number   1
_chemical_formula_structural   H5C23
_chemical_formula_sum   'H30 C138'
_cell_volume   19395.96552270
_cell_formula_units_Z   6
loop_
 _symmetry_equiv_pos_site_id
 _symmetry_equiv_pos_as_xyz
  1  'x, y, z'
loop_
 _atom_site_type_symbol
 _atom_site_label
 _atom_site_symmetry_multiplicity
 _atom_site_fract_x
 _atom_site_fract_y
 _atom_site_fract_z
 _atom_site_occupancy
  C  C0  1  0.50000000  0.31466473  0.56037134  1
  C  C1  1  0.50000000  0.31585043  0.88443246  1
  C  C2  1  0.50000000  0.38568418  0.22371854  1
  C  C3  1  0.50000000  0.38245503  0.55708437  1
  C  C4  1  0.50000000  0.38346540  0.88728325  1
  C  C5  1  0.50000000  0.45126443  0.22257444  1
  C  C6  1  0.50000000  0.44934693  0.55496657  1
  C  C7  1  0.50000000  0.44980303  0.88931409  1
  C  C8  1  0.50000000  0.51675045  0.22221953  1
  C  C9  1  0.50000000  0.51660826  0.55521807  1
  C  C10  1  0.50000000  0.51643200  0.88935716  1
  C  C11  1  0.50000000  0.58226935  0.22253460  1
  C  C12  1  0.50000000  0.58397445  0.55495224  1
  C  C13  1  0.50000000  0.58317227  0.88913971  1
  C  C14  1  0.50000000  0.64774176  0.22366477  1
  C  C15  1  0.50000000  0.65113784  0.55714802  1
  C  C16  1  0.50000000  0.64970234  0.88765226  1
  C  C17  1  0.50000000  0.71781332  0.56432316  1
  C  C18  1  0.50000000  0.71617141  0.88300440  1
  C  C19  1  0.50000000  0.31581958  0.61555813  1
  C  C20  1  0.50000000  0.31468324  0.93961432  1
  C  C21  1  0.50000000  0.38569168  0.27635701  1
  C  C22  1  0.50000000  0.38345623  0.61272369  1
  C  C23  1  0.50000000  0.38245494  0.94292527  1
  C  C24  1  0.50000000  0.45126177  0.27744090  1
  C  C25  1  0.50000000  0.44980125  0.61068609  1
  C  C26  1  0.50000000  0.44934301  0.94504349  1
  C  C27  1  0.50000000  0.51673887  0.27777524  1
  C  C28  1  0.50000000  0.51643061  0.61065169  1
  C  C29  1  0.50000000  0.51660788  0.94478871  1
  C  C30  1  0.50000000  0.58226257  0.27746917  1
  C  C31  1  0.50000000  0.58316381  0.61085839  1
  C  C32  1  0.50000000  0.58397461  0.94504580  1
  C  C33  1  0.50000000  0.64773094  0.27638050  1
  C  C34  1  0.50000000  0.64969220  0.61235176  1
  C  C35  1  0.50000000  0.65114830  0.94287999  1
  C  C36  1  0.50000000  0.71618406  0.61694225  1
  C  C37  1  0.50000000  0.71780998  0.93562023  1
  C  C38  1  0.50000000  0.28375250  0.64335063  1
  C  C39  1  0.50000000  0.28395693  0.96924150  1
  C  C40  1  0.50000000  0.34989844  0.64055210  1
  C  C41  1  0.50000000  0.34840842  0.96448818  1
  C  C42  1  0.50000000  0.41833265  0.30445785  1
  C  C43  1  0.50000000  0.41655654  0.63923288  1
  C  C44  1  0.50000000  0.41592660  0.97283056  1
  C  C45  1  0.50000000  0.48403560  0.30583306  1
  C  C46  1  0.50000000  0.48306232  0.63832519  1
  C  C47  1  0.50000000  0.48315984  0.97254479  1
  C  C48  1  0.50000000  0.54945965  0.30583101  1
  C  C49  1  0.50000000  0.54978886  0.63856519  1
  C  C50  1  0.50000000  0.55017031  0.97254921  1
  C  C51  1  0.50000000  0.61516631  0.30452960  1
  C  C52  1  0.50000000  0.61596702  0.63931506  1
  C  C53  1  0.50000000  0.61747995  0.97260333  1
  C  C54  1  0.50000000  0.68249206  0.64104224  1
  C  C55  1  0.50000000  0.68628016  0.96376268  1
  C  C56  1  0.50000000  0.28440260  0.69594646  1
  C  C57  1  0.50000000  0.35040932  0.69529449  1
  C  C58  1  0.50000000  0.41681782  0.02858031  1
  C  C59  1  0.50000000  0.41876464  0.35930156  1
  C  C60  1  0.50000000  0.41689027  0.69478983  1
  C  C61  1  0.50000000  0.48351001  0.02781919  1
  C  C62  1  0.50000000  0.48403815  0.36104950  1
  C  C63  1  0.50000000  0.48321390  0.69423198  1
  C  C64  1  0.50000000  0.54982551  0.02772487  1
  C  C65  1  0.50000000  0.54946505  0.36099707  1
  C  C66  1  0.50000000  0.54947871  0.69408812  1
  C  C67  1  0.50000000  0.61644355  0.02849374  1
  C  C68  1  0.50000000  0.61481039  0.35953162  1
  C  C69  1  0.50000000  0.61540771  0.69440280  1
  C  C70  1  0.50000000  0.68157977  0.69612138  1
  C  C71  1  0.50000000  0.31728100  0.72246511  1
  C  C72  1  0.50000000  0.38605876  0.06126532  1
  C  C73  1  0.50000000  0.38651765  0.38652954  1
  C  C74  1  0.50000000  0.38393625  0.72249810  1
  C  C75  1  0.50000000  0.45039969  0.05582107  1
  C  C76  1  0.50000000  0.45097225  0.38867106  1
  C  C77  1  0.50000000  0.45009564  0.72233004  1
  C  C78  1  0.50000000  0.51666495  0.05551931  1
  C  C79  1  0.50000000  0.51673915  0.38913989  1
  C  C80  1  0.50000000  0.51616164  0.72209958  1
  C  C81  1  0.50000000  0.58295828  0.05574506  1
  C  C82  1  0.50000000  0.58252828  0.38866526  1
  C  C83  1  0.50000000  0.58239154  0.72206682  1
  C  C84  1  0.50000000  0.64733962  0.06066131  1
  C  C85  1  0.50000000  0.64703078  0.38696786  1
  C  C86  1  0.50000000  0.64849088  0.72259316  1
  C  C87  1  0.50000000  0.71404782  0.72377742  1
  C  C88  1  0.50000000  0.31727557  0.77753107  1
  C  C89  1  0.50000000  0.38654418  0.11350989  1
  C  C90  1  0.50000000  0.38606608  0.43877174  1
  C  C91  1  0.50000000  0.38393648  0.77749140  1
  C  C92  1  0.50000000  0.45097575  0.11133911  1
  C  C93  1  0.50000000  0.45041137  0.44418140  1
  C  C94  1  0.50000000  0.45009648  0.77767318  1
  C  C95  1  0.50000000  0.51674403  0.11085873  1
  C  C96  1  0.50000000  0.51667671  0.44447394  1
  C  C97  1  0.50000000  0.51616447  0.77789279  1
  C  C98  1  0.50000000  0.58253267  0.11133643  1
  C  C99  1  0.50000000  0.58296595  0.44425447  1
  C  C100  1  0.50000000  0.58239352  0.77793775  1
  C  C101  1  0.50000000  0.64703432  0.11299626  1
  C  C102  1  0.50000000  0.64736142  0.43929980  1
  C  C103  1  0.50000000  0.64849962  0.77738846  1
  C  C104  1  0.50000000  0.71406176  0.77612575  1
  C  C105  1  0.50000000  0.28440347  0.80406548  1
  C  C106  1  0.50000000  0.35041182  0.80469020  1
  C  C107  1  0.50000000  0.41877727  0.14073973  1
  C  C108  1  0.50000000  0.41683431  0.47142757  1
  C  C109  1  0.50000000  0.41688865  0.80520589  1
  C  C110  1  0.50000000  0.48404359  0.13895714  1
  C  C111  1  0.50000000  0.48352317  0.47217796  1
  C  C112  1  0.50000000  0.48321796  0.80576208  1
  C  C113  1  0.50000000  0.54947608  0.13900529  1
  C  C114  1  0.50000000  0.54983069  0.47227383  1
  C  C115  1  0.50000000  0.54947985  0.80591478  1
  C  C116  1  0.50000000  0.61481955  0.14047610  1
  C  C117  1  0.50000000  0.61646415  0.47150165  1
  C  C118  1  0.50000000  0.61541929  0.80558865  1
  C  C119  1  0.50000000  0.68159801  0.80383568  1
  C  C120  1  0.50000000  0.28394765  0.53069990  1
  C  C121  1  0.50000000  0.28377989  0.85665351  1
  C  C122  1  0.50000000  0.34840149  0.53555242  1
  C  C123  1  0.50000000  0.34992135  0.85943537  1
  C  C124  1  0.50000000  0.41832315  0.19558368  1
  C  C125  1  0.50000000  0.41592843  0.52718125  1
  C  C126  1  0.50000000  0.41655873  0.86076378  1
  C  C127  1  0.50000000  0.48404235  0.19417636  1
  C  C128  1  0.50000000  0.48316626  0.52745328  1
  C  C129  1  0.50000000  0.48306570  0.86166981  1
  C  C130  1  0.50000000  0.54947369  0.19416573  1
  C  C131  1  0.50000000  0.55016944  0.52745008  1
  C  C132  1  0.50000000  0.54979276  0.86143882  1
  C  C133  1  0.50000000  0.61518151  0.19548674  1
  C  C134  1  0.50000000  0.61748507  0.52740354  1
  C  C135  1  0.50000000  0.61597692  0.86068248  1
  C  C136  1  0.50000000  0.68625286  0.53627736  1
  C  C137  1  0.50000000  0.68248939  0.85892151  1
  H  H138  1  0.50000000  0.74356040  0.54396396  1
  H  H139  1  0.50000000  0.74108404  0.86116491  1
  H  H140  1  0.50000000  0.74110369  0.63874882  1
  H  H141  1  0.50000000  0.74362075  0.95578017  1
  H  H142  1  0.50000000  0.25797556  0.62324127  1
  H  H143  1  0.50000000  0.25675775  0.95348191  1
  H  H144  1  0.50000000  0.25892990  0.71655515  1
  H  H145  1  0.50000000  0.73991124  0.70428861  1
  H  H146  1  0.50000000  0.73998167  0.79544501  1
  H  H147  1  0.50000000  0.25888887  0.78357162  1
  H  H148  1  0.50000000  0.25680393  0.54669599  1
  H  H149  1  0.50000000  0.25799904  0.87673933  1
  H  H150  1  0.50000000  0.35978598  0.20402252  1
  H  H151  1  0.50000000  0.67357946  0.20385317  1
  H  H152  1  0.50000000  0.35982588  0.29614588  1
  H  H153  1  0.50000000  0.67352943  0.29627680  1
  H  H154  1  0.50000000  0.28611911  0.01119312  1
  H  H155  1  0.50000000  0.34433630  0.00478571  1
  H  H156  1  0.50000000  0.69192267  0.00392811  1
  H  H157  1  0.50000000  0.35886330  0.04843818  1
  H  H158  1  0.50000000  0.36060209  0.36693184  1
  H  H159  1  0.50000000  0.67412683  0.04626150  1
  H  H160  1  0.50000000  0.67293009  0.36734301  1
  H  H161  1  0.50000000  0.36064653  0.13313221  1
  H  H162  1  0.50000000  0.35891922  0.45177846  1
  H  H163  1  0.50000000  0.67295644  0.13256767  1
  H  H164  1  0.50000000  0.67419501  0.45353754  1
  H  H165  1  0.50000000  0.28605566  0.48869368  1
  H  H166  1  0.50000000  0.34428646  0.49528358  1
  H  H167  1  0.50000000  0.69187620  0.49614793  1
