# generated using pymatgen
data_H5C24
_symmetry_space_group_name_H-M   'P 1'
_cell_length_a   20.00000000
_cell_length_b   40.19450000
_cell_length_c   26.03341199
_cell_angle_alpha   90.00000000
_cell_angle_beta   90.00000000
_cell_angle_gamma   90.00000000
_symmetry_Int_Tables_number   1
_chemical_formula_structural   H5C24
_chemical_formula_sum   'H30 C144'
_cell_volume   20927.99956675
_cell_formula_units_Z   6
loop_
 _symmetry_equiv_pos_site_id
 _symmetry_equiv_pos_as_xyz
  1  'x, y, z'
loop_
 _atom_site_type_symbol
 _atom_site_label
 _atom_site_symmetry_multiplicity
 _atom_site_fract_x
 _atom_site_fract_y
 _atom_site_fract_z
 _atom_site_occupancy
  C  C0  1  0.50000000  0.28428536  0.61699622  1
  C  C1  1  0.50000000  0.28624536  0.77611320  1
  C  C2  1  0.50000000  0.28268715  0.93558287  1
  C  C3  1  0.50000000  0.31555694  0.64107575  1
  C  C4  1  0.50000000  0.31634288  0.80387704  1
  C  C5  1  0.50000000  0.31190705  0.96382302  1
  C  C6  1  0.50000000  0.28269989  0.56439545  1
  C  C7  1  0.50000000  0.28626855  0.72378373  1
  C  C8  1  0.50000000  0.28430021  0.88298734  1
  C  C9  1  0.50000000  0.34828865  0.11295149  1
  C  C10  1  0.50000000  0.34590055  0.61233610  1
  C  C11  1  0.50000000  0.34766673  0.27637991  1
  C  C12  1  0.50000000  0.34700687  0.77743497  1
  C  C13  1  0.50000000  0.34801858  0.43931039  1
  C  C14  1  0.50000000  0.34444824  0.94297308  1
  C  C15  1  0.50000000  0.37815683  0.14047461  1
  C  C16  1  0.50000000  0.37715163  0.63937074  1
  C  C17  1  0.50000000  0.37786132  0.30457383  1
  C  C18  1  0.50000000  0.37763023  0.80566538  1
  C  C19  1  0.50000000  0.37663486  0.47158982  1
  C  C20  1  0.50000000  0.37569215  0.97266915  1
  C  C21  1  0.50000000  0.31195345  0.53627032  1
  C  C22  1  0.50000000  0.31638122  0.69611473  1
  C  C23  1  0.50000000  0.31555078  0.85892696  1
  C  C24  1  0.50000000  0.34812309  0.06063879  1
  C  C25  1  0.50000000  0.34446939  0.55711465  1
  C  C26  1  0.50000000  0.34767283  0.22367678  1
  C  C27  1  0.50000000  0.34701957  0.72260263  1
  C  C28  1  0.50000000  0.34828915  0.38698253  1
  C  C29  1  0.50000000  0.34587838  0.88771880  1
  C  C30  1  0.50000000  0.40810054  0.11134834  1
  C  C31  1  0.50000000  0.40758963  0.61082618  1
  C  C32  1  0.50000000  0.40836231  0.27748035  1
  C  C33  1  0.50000000  0.40829233  0.77787470  1
  C  C34  1  0.50000000  0.40767847  0.44432162  1
  C  C35  1  0.50000000  0.40676663  0.94498000  1
  C  C36  1  0.50000000  0.43872094  0.13903333  1
  C  C37  1  0.50000000  0.43849501  0.63846239  1
  C  C38  1  0.50000000  0.43872700  0.30586599  1
  C  C39  1  0.50000000  0.43875614  0.80585545  1
  C  C40  1  0.50000000  0.43835313  0.47232111  1
  C  C41  1  0.50000000  0.43805156  0.97240521  1
  C  C42  1  0.50000000  0.37674870  0.02844795  1
  C  C43  1  0.50000000  0.37566651  0.52736244  1
  C  C44  1  0.50000000  0.37785540  0.19543762  1
  C  C45  1  0.50000000  0.37763369  0.69436850  1
  C  C46  1  0.50000000  0.37818472  0.35953720  1
  C  C47  1  0.50000000  0.37712741  0.86068773  1
  C  C48  1  0.50000000  0.40776884  0.05571748  1
  C  C49  1  0.50000000  0.40676168  0.55500106  1
  C  C50  1  0.50000000  0.40838152  0.22248810  1
  C  C51  1  0.50000000  0.40828127  0.72212296  1
  C  C52  1  0.50000000  0.40810851  0.38874803  1
  C  C53  1  0.50000000  0.40758071  0.88914999  1
  C  C54  1  0.50000000  0.46904790  0.11078828  1
  C  C55  1  0.50000000  0.46939813  0.61061803  1
  C  C56  1  0.50000000  0.46903083  0.27773939  1
  C  C57  1  0.50000000  0.46960712  0.77774014  1
  C  C58  1  0.50000000  0.46909834  0.44449587  1
  C  C59  1  0.50000000  0.46914577  0.94454609  1
  C  C60  1  0.50000000  0.49935580  0.13892233  1
  C  C61  1  0.50000000  0.50033053  0.63842927  1
  C  C62  1  0.50000000  0.49933153  0.30581384  1
  C  C63  1  0.50000000  0.50028263  0.80570924  1
  C  C64  1  0.50000000  0.49983317  0.47226617  1
  C  C65  1  0.50000000  0.50014652  0.97240298  1
  C  C66  1  0.50000000  0.43842019  0.02761235  1
  C  C67  1  0.50000000  0.43803981  0.52754748  1
  C  C68  1  0.50000000  0.43877548  0.19420605  1
  C  C69  1  0.50000000  0.43875819  0.69408341  1
  C  C70  1  0.50000000  0.43873252  0.36107462  1
  C  C71  1  0.50000000  0.43846774  0.86144841  1
  C  C72  1  0.50000000  0.46914092  0.05546451  1
  C  C73  1  0.50000000  0.46914495  0.55535155  1
  C  C74  1  0.50000000  0.46908725  0.22228701  1
  C  C75  1  0.50000000  0.46960608  0.72221851  1
  C  C76  1  0.50000000  0.46906370  0.38920761  1
  C  C77  1  0.50000000  0.46938414  0.88930472  1
  C  C78  1  0.50000000  0.52999112  0.11133197  1
  C  C79  1  0.50000000  0.53109026  0.61083273  1
  C  C80  1  0.50000000  0.52969143  0.27743935  1
  C  C81  1  0.50000000  0.53085328  0.77764106  1
  C  C82  1  0.50000000  0.53049164  0.44422058  1
  C  C83  1  0.50000000  0.53141002  0.94489864  1
  C  C84  1  0.50000000  0.55981277  0.14076720  1
  C  C85  1  0.50000000  0.56181316  0.63953091  1
  C  C86  1  0.50000000  0.56020494  0.30442239  1
  C  C87  1  0.50000000  0.56171741  0.80529698  1
  C  C88  1  0.50000000  0.56158359  0.47148498  1
  C  C89  1  0.50000000  0.56234299  0.97273670  1
  C  C90  1  0.50000000  0.49987839  0.02772707  1
  C  C91  1  0.50000000  0.50013862  0.52756404  1
  C  C92  1  0.50000000  0.49937013  0.19413790  1
  C  C93  1  0.50000000  0.50028797  0.69423843  1
  C  C94  1  0.50000000  0.49936234  0.36104065  1
  C  C95  1  0.50000000  0.50031962  0.86151672  1
  C  C96  1  0.50000000  0.53053168  0.05575465  1
  C  C97  1  0.50000000  0.53143041  0.55502735  1
  C  C98  1  0.50000000  0.52971136  0.22254673  1
  C  C99  1  0.50000000  0.53085406  0.72231234  1
  C  C100  1  0.50000000  0.52998641  0.38865175  1
  C  C101  1  0.50000000  0.53108901  0.88908797  1
  C  C102  1  0.50000000  0.58970973  0.11357698  1
  C  C103  1  0.50000000  0.59270523  0.61277766  1
  C  C104  1  0.50000000  0.59045525  0.27633572  1
  C  C105  1  0.50000000  0.59246522  0.77758188  1
  C  C106  1  0.50000000  0.59007581  0.43871569  1
  C  C107  1  0.50000000  0.59328289  0.94274981  1
  C  C108  1  0.50000000  0.62344600  0.64082920  1
  C  C109  1  0.50000000  0.62326929  0.80448126  1
  C  C110  1  0.50000000  0.62477779  0.96460712  1
  C  C111  1  0.50000000  0.56164760  0.02852374  1
  C  C112  1  0.50000000  0.56235296  0.52723489  1
  C  C113  1  0.50000000  0.56022824  0.19558972  1
  C  C114  1  0.50000000  0.56172495  0.69466647  1
  C  C115  1  0.50000000  0.55981818  0.35924414  1
  C  C116  1  0.50000000  0.56180730  0.86040986  1
  C  C117  1  0.50000000  0.59012864  0.06132204  1
  C  C118  1  0.50000000  0.59331856  0.55721095  1
  C  C119  1  0.50000000  0.59047598  0.22371537  1
  C  C120  1  0.50000000  0.59246759  0.72240011  1
  C  C121  1  0.50000000  0.58971405  0.38646087  1
  C  C122  1  0.50000000  0.59269457  0.88719200  1
  C  C123  1  0.50000000  0.65499065  0.61526417  1
  C  C124  1  0.50000000  0.65449309  0.77736735  1
  C  C125  1  0.50000000  0.65519370  0.93889499  1
  C  C126  1  0.50000000  0.68600947  0.64105304  1
  C  C127  1  0.50000000  0.68552150  0.80387286  1
  C  C128  1  0.50000000  0.68520315  0.96727275  1
  C  C129  1  0.50000000  0.62484676  0.53541754  1
  C  C130  1  0.50000000  0.62327097  0.69552420  1
  C  C131  1  0.50000000  0.62343934  0.85917516  1
  C  C132  1  0.50000000  0.65524562  0.56119625  1
  C  C133  1  0.50000000  0.65448816  0.72266835  1
  C  C134  1  0.50000000  0.65496529  0.88480193  1
  C  C135  1  0.50000000  0.71573150  0.61233827  1
  C  C136  1  0.50000000  0.71560214  0.77635804  1
  C  C137  1  0.50000000  0.71539867  0.94159661  1
  C  C138  1  0.50000000  0.68530248  0.53292525  1
  C  C139  1  0.50000000  0.68552057  0.69620660  1
  C  C140  1  0.50000000  0.68600385  0.85904765  1
  C  C141  1  0.50000000  0.71549016  0.55863261  1
  C  C142  1  0.50000000  0.71560114  0.72371815  1
  C  C143  1  0.50000000  0.71569339  0.88787779  1
  H  H144  1  0.50000000  0.26126868  0.63897392  1
  H  H145  1  0.50000000  0.26220372  0.79535301  1
  H  H146  1  0.50000000  0.25872338  0.95565403  1
  H  H147  1  0.50000000  0.25881276  0.54405819  1
  H  H148  1  0.50000000  0.26229227  0.70433078  1
  H  H149  1  0.50000000  0.26132168  0.86090278  1
  H  H150  1  0.50000000  0.73974426  0.63199496  1
  H  H151  1  0.50000000  0.73932688  0.79673336  1
  H  H152  1  0.50000000  0.73888329  0.96295058  1
  H  H153  1  0.50000000  0.73899756  0.53735994  1
  H  H154  1  0.50000000  0.73934281  0.70338475  1
  H  H155  1  0.50000000  0.73979197  0.86847641  1
  H  H156  1  0.50000000  0.68420157  0.49086069  1
  H  H157  1  0.50000000  0.30660297  0.00400789  1
  H  H158  1  0.50000000  0.32424945  0.13245169  1
  H  H159  1  0.50000000  0.32374052  0.29622875  1
  H  H160  1  0.50000000  0.32322913  0.45371450  1
  H  H161  1  0.50000000  0.30667929  0.49612490  1
  H  H162  1  0.50000000  0.32342790  0.04591807  1
  H  H163  1  0.50000000  0.32372579  0.20392579  1
  H  H164  1  0.50000000  0.32428482  0.36733632  1
  H  H165  1  0.50000000  0.61372623  0.13316739  1
  H  H166  1  0.50000000  0.61435512  0.29622991  1
  H  H167  1  0.50000000  0.61515669  0.45183205  1
  H  H168  1  0.50000000  0.62891928  0.00485039  1
  H  H169  1  0.50000000  0.61528814  0.04851034  1
  H  H170  1  0.50000000  0.61443014  0.20398107  1
  H  H171  1  0.50000000  0.61373271  0.36686563  1
  H  H172  1  0.50000000  0.68406412  0.00937442  1
  H  H173  1  0.50000000  0.62912297  0.49520606  1
