# generated using pymatgen
data_H11C39
_symmetry_space_group_name_H-M   'P 1'
_cell_length_a   10.00000000
_cell_length_b   41.10890000
_cell_length_c   26.00650835
_cell_angle_alpha   90.00000000
_cell_angle_beta   90.00000000
_cell_angle_gamma   90.00000000
_symmetry_Int_Tables_number   1
_chemical_formula_structural   H11C39
_chemical_formula_sum   'H44 C156'
_cell_volume   10690.98950989
_cell_formula_units_Z   4
loop_
 _symmetry_equiv_pos_site_id
 _symmetry_equiv_pos_as_xyz
  1  'x, y, z'
loop_
 _atom_site_type_symbol
 _atom_site_label
 _atom_site_symmetry_multiplicity
 _atom_site_fract_x
 _atom_site_fract_y
 _atom_site_fract_z
 _atom_site_occupancy
  C  C0  1  0.50000000  0.28283250  0.30643111  1
  C  C1  1  0.50000000  0.29134493  0.63909433  1
  C  C2  1  0.50000000  0.28970951  0.97097145  1
  C  C3  1  0.50000000  0.34277605  0.30428038  1
  C  C4  1  0.50000000  0.35123318  0.63915402  1
  C  C5  1  0.50000000  0.35042859  0.97381035  1
  C  C6  1  0.50000000  0.41108425  0.64021010  1
  C  C7  1  0.50000000  0.41220994  0.96621910  1
  C  C8  1  0.50000000  0.47170776  0.64141034  1
  C  C9  1  0.50000000  0.47144460  0.96724139  1
  C  C10  1  0.50000000  0.53170633  0.64074054  1
  C  C11  1  0.50000000  0.53159627  0.96814838  1
  C  C12  1  0.50000000  0.59184597  0.64017806  1
  C  C13  1  0.50000000  0.59153080  0.96832056  1
  C  C14  1  0.50000000  0.65103487  0.30735135  1
  C  C15  1  0.50000000  0.65181046  0.63953044  1
  C  C16  1  0.50000000  0.65201260  0.97172436  1
  C  C17  1  0.50000000  0.71030445  0.30545704  1
  C  C18  1  0.50000000  0.71200972  0.63869628  1
  C  C19  1  0.50000000  0.71194896  0.97192435  1
  C  C20  1  0.50000000  0.28764101  0.02634567  1
  C  C21  1  0.50000000  0.28380872  0.36232142  1
  C  C22  1  0.50000000  0.29136365  0.69480966  1
  C  C23  1  0.50000000  0.34795741  0.02931071  1
  C  C24  1  0.50000000  0.34335672  0.35874601  1
  C  C25  1  0.50000000  0.35124796  0.69438927  1
  C  C26  1  0.50000000  0.41108958  0.69521009  1
  C  C27  1  0.50000000  0.47157796  0.69603087  1
  C  C28  1  0.50000000  0.53180777  0.69559908  1
  C  C29  1  0.50000000  0.59199007  0.69522802  1
  C  C30  1  0.50000000  0.65262066  0.02519817  1
  C  C31  1  0.50000000  0.65130905  0.36035501  1
  C  C32  1  0.50000000  0.65200742  0.69455780  1
  C  C33  1  0.50000000  0.71179234  0.02761589  1
  C  C34  1  0.50000000  0.71055165  0.36125098  1
  C  C35  1  0.50000000  0.71214673  0.69456626  1
  C  C36  1  0.50000000  0.25743090  0.05348366  1
  C  C37  1  0.50000000  0.25546535  0.39362445  1
  C  C38  1  0.50000000  0.26215151  0.72343314  1
  C  C39  1  0.50000000  0.31678276  0.05557187  1
  C  C40  1  0.50000000  0.31448280  0.38877509  1
  C  C41  1  0.50000000  0.32127333  0.72230361  1
  C  C42  1  0.50000000  0.37520309  0.06315579  1
  C  C43  1  0.50000000  0.37327291  0.38480766  1
  C  C44  1  0.50000000  0.38109450  0.72239854  1
  C  C45  1  0.50000000  0.44129131  0.72263735  1
  C  C46  1  0.50000000  0.50175708  0.72281165  1
  C  C47  1  0.50000000  0.56189263  0.72263201  1
  C  C48  1  0.50000000  0.62204311  0.72243463  1
  C  C49  1  0.50000000  0.68153653  0.05455807  1
  C  C50  1  0.50000000  0.68078121  0.38926518  1
  C  C51  1  0.50000000  0.68218415  0.72224004  1
  C  C52  1  0.50000000  0.74088656  0.05729089  1
  C  C53  1  0.50000000  0.74020823  0.38975295  1
  C  C54  1  0.50000000  0.74138301  0.72329018  1
  C  C55  1  0.50000000  0.25552518  0.10647683  1
  C  C56  1  0.50000000  0.25738671  0.44660274  1
  C  C57  1  0.50000000  0.26216267  0.77646353  1
  C  C58  1  0.50000000  0.31453428  0.11129136  1
  C  C59  1  0.50000000  0.31674039  0.44448152  1
  C  C60  1  0.50000000  0.32129091  0.77762148  1
  C  C61  1  0.50000000  0.37331192  0.11528490  1
  C  C62  1  0.50000000  0.37517552  0.43694152  1
  C  C63  1  0.50000000  0.38110524  0.77761681  1
  C  C64  1  0.50000000  0.44130548  0.77744333  1
  C  C65  1  0.50000000  0.50176755  0.77734273  1
  C  C66  1  0.50000000  0.56190302  0.77750244  1
  C  C67  1  0.50000000  0.62204998  0.77762441  1
  C  C68  1  0.50000000  0.68097874  0.11063727  1
  C  C69  1  0.50000000  0.68133897  0.44534250  1
  C  C70  1  0.50000000  0.68218109  0.77763845  1
  C  C71  1  0.50000000  0.74038224  0.11018378  1
  C  C72  1  0.50000000  0.74070682  0.44264337  1
  C  C73  1  0.50000000  0.74140002  0.77646767  1
  C  C74  1  0.50000000  0.28386679  0.13775983  1
  C  C75  1  0.50000000  0.28760614  0.47370462  1
  C  C76  1  0.50000000  0.29138317  0.80509619  1
  C  C77  1  0.50000000  0.34340264  0.14135185  1
  C  C78  1  0.50000000  0.34791839  0.47072927  1
  C  C79  1  0.50000000  0.35125743  0.80560456  1
  C  C80  1  0.50000000  0.41109665  0.80482185  1
  C  C81  1  0.50000000  0.47158901  0.80409124  1
  C  C82  1  0.50000000  0.53182610  0.80454269  1
  C  C83  1  0.50000000  0.59201092  0.80486998  1
  C  C84  1  0.50000000  0.65147838  0.13946119  1
  C  C85  1  0.50000000  0.65243501  0.47471426  1
  C  C86  1  0.50000000  0.65202943  0.80546781  1
  C  C87  1  0.50000000  0.71073005  0.13870750  1
  C  C88  1  0.50000000  0.71159709  0.47227163  1
  C  C89  1  0.50000000  0.71218029  0.80525487  1
  C  C90  1  0.50000000  0.28284607  0.19366078  1
  C  C91  1  0.50000000  0.28969977  0.52903500  1
  C  C92  1  0.50000000  0.29135678  0.86081496  1
  C  C93  1  0.50000000  0.34280027  0.19582992  1
  C  C94  1  0.50000000  0.35041302  0.52620697  1
  C  C95  1  0.50000000  0.35122829  0.86083971  1
  C  C96  1  0.50000000  0.41222400  0.53380599  1
  C  C97  1  0.50000000  0.41108748  0.85982391  1
  C  C98  1  0.50000000  0.47141908  0.53281417  1
  C  C99  1  0.50000000  0.47172679  0.85871051  1
  C  C100  1  0.50000000  0.53151978  0.53197849  1
  C  C101  1  0.50000000  0.53174790  0.85939038  1
  C  C102  1  0.50000000  0.59140188  0.53172800  1
  C  C103  1  0.50000000  0.59190406  0.85991000  1
  C  C104  1  0.50000000  0.65114724  0.19245802  1
  C  C105  1  0.50000000  0.65185542  0.52819488  1
  C  C106  1  0.50000000  0.65190087  0.86046539  1
  C  C107  1  0.50000000  0.71041913  0.19451194  1
  C  C108  1  0.50000000  0.71176499  0.52795134  1
  C  C109  1  0.50000000  0.71210359  0.86112953  1
  C  C110  1  0.50000000  0.25362062  0.22337022  1
  C  C111  1  0.50000000  0.26082165  0.55892447  1
  C  C112  1  0.50000000  0.26154803  0.88835477  1
  C  C113  1  0.50000000  0.31252004  0.22241639  1
  C  C114  1  0.50000000  0.32059388  0.55522600  1
  C  C115  1  0.50000000  0.32093908  0.88895983  1
  C  C116  1  0.50000000  0.37240837  0.22389238  1
  C  C117  1  0.50000000  0.38136817  0.55561208  1
  C  C118  1  0.50000000  0.38103232  0.88824638  1
  C  C119  1  0.50000000  0.44207663  0.56023376  1
  C  C120  1  0.50000000  0.44168841  0.88530390  1
  C  C121  1  0.50000000  0.50157876  0.55841610  1
  C  C122  1  0.50000000  0.50166536  0.88629429  1
  C  C123  1  0.50000000  0.56127263  0.55823323  1
  C  C124  1  0.50000000  0.56170190  0.88665028  1
  C  C125  1  0.50000000  0.62112546  0.55672473  1
  C  C126  1  0.50000000  0.62188337  0.88769319  1
  C  C127  1  0.50000000  0.68036677  0.22196752  1
  C  C128  1  0.50000000  0.68197376  0.55608609  1
  C  C129  1  0.50000000  0.68224421  0.88844909  1
  C  C130  1  0.50000000  0.73977868  0.22363173  1
  C  C131  1  0.50000000  0.74121576  0.55664840  1
  C  C132  1  0.50000000  0.74143240  0.89022651  1
  C  C133  1  0.50000000  0.25361617  0.27673436  1
  C  C134  1  0.50000000  0.26153364  0.61159333  1
  C  C135  1  0.50000000  0.26084668  0.94102683  1
  C  C136  1  0.50000000  0.31250987  0.27767703  1
  C  C137  1  0.50000000  0.32093411  0.61103410  1
  C  C138  1  0.50000000  0.32060959  0.94480388  1
  C  C139  1  0.50000000  0.37239823  0.27625089  1
  C  C140  1  0.50000000  0.38103452  0.61175789  1
  C  C141  1  0.50000000  0.38137008  0.94437166  1
  C  C142  1  0.50000000  0.44168688  0.61477382  1
  C  C143  1  0.50000000  0.44208556  0.93983834  1
  C  C144  1  0.50000000  0.50162747  0.61382121  1
  C  C145  1  0.50000000  0.50163590  0.94170139  1
  C  C146  1  0.50000000  0.56164258  0.61346095  1
  C  C147  1  0.50000000  0.56136041  0.94188569  1
  C  C148  1  0.50000000  0.62179715  0.61232348  1
  C  C149  1  0.50000000  0.62124331  0.94327234  1
  C  C150  1  0.50000000  0.68029700  0.27790396  1
  C  C151  1  0.50000000  0.68212128  0.61145949  1
  C  C152  1  0.50000000  0.68213521  0.94382103  1
  C  C153  1  0.50000000  0.73971498  0.27646650  1
  C  C154  1  0.50000000  0.74131963  0.60955641  1
  C  C155  1  0.50000000  0.74138147  0.94314349  1
  H  H156  1  0.50000000  0.23462496  0.03186010  1
  H  H157  1  0.50000000  0.23135260  0.37576587  1
  H  H158  1  0.50000000  0.23870690  0.70373284  1
  H  H159  1  0.50000000  0.76452604  0.03804645  1
  H  H160  1  0.50000000  0.76345444  0.36932399  1
  H  H161  1  0.50000000  0.76481625  0.70339305  1
  H  H162  1  0.50000000  0.23147610  0.12453583  1
  H  H163  1  0.50000000  0.23454259  0.46812234  1
  H  H164  1  0.50000000  0.23873126  0.79619214  1
  H  H165  1  0.50000000  0.76366428  0.13050013  1
  H  H166  1  0.50000000  0.76430300  0.46201707  1
  H  H167  1  0.50000000  0.76487545  0.79624576  1
  H  H168  1  0.50000000  0.23005586  0.20369139  1
  H  H169  1  0.50000000  0.23710341  0.53995037  1
  H  H170  1  0.50000000  0.23842360  0.86771261  1
  H  H171  1  0.50000000  0.76325349  0.20386932  1
  H  H172  1  0.50000000  0.76453273  0.53646300  1
  H  H173  1  0.50000000  0.76491472  0.87049962  1
  H  H174  1  0.50000000  0.23007663  0.29649400  1
  H  H175  1  0.50000000  0.23839120  0.63217391  1
  H  H176  1  0.50000000  0.23712783  0.95999167  1
  H  H177  1  0.50000000  0.76313423  0.29638978  1
  H  H178  1  0.50000000  0.76480269  0.62927329  1
  H  H179  1  0.50000000  0.76476557  0.96315878  1
  H  H180  1  0.50000000  0.41639217  0.00676214  1
  H  H181  1  0.50000000  0.47077679  0.00943924  1
  H  H182  1  0.50000000  0.53149767  0.01032124  1
  H  H183  1  0.50000000  0.59052194  0.01034216  1
  H  H184  1  0.50000000  0.62741841  0.28790768  1
  H  H185  1  0.50000000  0.62952735  0.04577263  1
  H  H186  1  0.50000000  0.62784190  0.38019052  1
  H  H187  1  0.50000000  0.39985659  0.05016875  1
  H  H188  1  0.50000000  0.39617947  0.36373625  1
  H  H189  1  0.50000000  0.39621848  0.13635356  1
  H  H190  1  0.50000000  0.39981885  0.44995714  1
  H  H191  1  0.50000000  0.62805801  0.11950876  1
  H  H192  1  0.50000000  0.62936143  0.45408732  1
  H  H193  1  0.50000000  0.41653986  0.49327394  1
  H  H194  1  0.50000000  0.47079699  0.49060563  1
  H  H195  1  0.50000000  0.53140164  0.48981196  1
  H  H196  1  0.50000000  0.59032527  0.48971256  1
  H  H197  1  0.50000000  0.62755868  0.21197157  1
  H  H198  1  0.50000000  0.39578079  0.20403182  1
  H  H199  1  0.50000000  0.39574524  0.29618245  1
