# generated using pymatgen
data_H8C39
_symmetry_space_group_name_H-M   'P 1'
_cell_length_a   10.00000000
_cell_length_b   41.10890000
_cell_length_c   26.04014351
_cell_angle_alpha   90.00000000
_cell_angle_beta   90.00000000
_cell_angle_gamma   90.00000000
_symmetry_Int_Tables_number   1
_chemical_formula_structural   H8C39
_chemical_formula_sum   'H32 C156'
_cell_volume   10704.81655662
_cell_formula_units_Z   4
loop_
 _symmetry_equiv_pos_site_id
 _symmetry_equiv_pos_as_xyz
  1  'x, y, z'
loop_
 _atom_site_type_symbol
 _atom_site_label
 _atom_site_symmetry_multiplicity
 _atom_site_fract_x
 _atom_site_fract_y
 _atom_site_fract_z
 _atom_site_occupancy
  C  C0  1  0.50000000  0.28811619  0.63930439  1
  C  C1  1  0.50000000  0.28935726  0.96941986  1
  C  C2  1  0.50000000  0.34851395  0.64169115  1
  C  C3  1  0.50000000  0.34934326  0.96667907  1
  C  C4  1  0.50000000  0.40937887  0.64113152  1
  C  C5  1  0.50000000  0.40809373  0.96441681  1
  C  C6  1  0.50000000  0.47110248  0.30451108  1
  C  C7  1  0.50000000  0.46963537  0.63955844  1
  C  C8  1  0.50000000  0.46910683  0.97275056  1
  C  C9  1  0.50000000  0.53059928  0.30584786  1
  C  C10  1  0.50000000  0.52976474  0.63846902  1
  C  C11  1  0.50000000  0.52991971  0.97253388  1
  C  C12  1  0.50000000  0.58982050  0.30582890  1
  C  C13  1  0.50000000  0.59017038  0.63857893  1
  C  C14  1  0.50000000  0.59053443  0.97248207  1
  C  C15  1  0.50000000  0.64935921  0.30458065  1
  C  C16  1  0.50000000  0.65009711  0.63932155  1
  C  C17  1  0.50000000  0.65152873  0.97263158  1
  C  C18  1  0.50000000  0.71031697  0.64101605  1
  C  C19  1  0.50000000  0.71390686  0.96379175  1
  C  C20  1  0.50000000  0.28815243  0.69511643  1
  C  C21  1  0.50000000  0.34866857  0.69616100  1
  C  C22  1  0.50000000  0.40943032  0.69573845  1
  C  C23  1  0.50000000  0.46973728  0.02855466  1
  C  C24  1  0.50000000  0.47148309  0.35935376  1
  C  C25  1  0.50000000  0.46972713  0.69482602  1
  C  C26  1  0.50000000  0.53012777  0.02786014  1
  C  C27  1  0.50000000  0.53059444  0.36108508  1
  C  C28  1  0.50000000  0.52981815  0.69430585  1
  C  C29  1  0.50000000  0.59022357  0.02769243  1
  C  C30  1  0.50000000  0.58987207  0.36100320  1
  C  C31  1  0.50000000  0.58988420  0.69411468  1
  C  C32  1  0.50000000  0.65051646  0.02847932  1
  C  C33  1  0.50000000  0.64906839  0.35954386  1
  C  C34  1  0.50000000  0.64961138  0.69435846  1
  C  C35  1  0.50000000  0.70951247  0.69607551  1
  C  C36  1  0.50000000  0.25899389  0.72339996  1
  C  C37  1  0.50000000  0.31816385  0.72264274  1
  C  C38  1  0.50000000  0.37899176  0.72262088  1
  C  C39  1  0.50000000  0.44186486  0.06127100  1
  C  C40  1  0.50000000  0.44227836  0.38660959  1
  C  C41  1  0.50000000  0.43974793  0.72254757  1
  C  C42  1  0.50000000  0.50013001  0.05583226  1
  C  C43  1  0.50000000  0.50066229  0.38872174  1
  C  C44  1  0.50000000  0.49987271  0.72238425  1
  C  C45  1  0.50000000  0.56018047  0.05558598  1
  C  C46  1  0.50000000  0.56022305  0.38915578  1
  C  C47  1  0.50000000  0.55972272  0.72220655  1
  C  C48  1  0.50000000  0.62018905  0.05575059  1
  C  C49  1  0.50000000  0.61982938  0.38865647  1
  C  C50  1  0.50000000  0.61968309  0.72207627  1
  C  C51  1  0.50000000  0.67849276  0.06066361  1
  C  C52  1  0.50000000  0.67828082  0.38695952  1
  C  C53  1  0.50000000  0.67955713  0.72257226  1
  C  C54  1  0.50000000  0.73892713  0.72375306  1
  C  C55  1  0.50000000  0.25899894  0.77649000  1
  C  C56  1  0.50000000  0.31817511  0.77728976  1
  C  C57  1  0.50000000  0.37899972  0.77741237  1
  C  C58  1  0.50000000  0.44224726  0.11353853  1
  C  C59  1  0.50000000  0.44193498  0.43888036  1
  C  C60  1  0.50000000  0.43975492  0.77754623  1
  C  C61  1  0.50000000  0.50062336  0.11139545  1
  C  C62  1  0.50000000  0.50019336  0.44428194  1
  C  C63  1  0.50000000  0.49987705  0.77770459  1
  C  C64  1  0.50000000  0.56020329  0.11090475  1
  C  C65  1  0.50000000  0.56021086  0.44448114  1
  C  C66  1  0.50000000  0.55972890  0.77784226  1
  C  C67  1  0.50000000  0.61981939  0.11136040  1
  C  C68  1  0.50000000  0.62023170  0.44428105  1
  C  C69  1  0.50000000  0.61969136  0.77791878  1
  C  C70  1  0.50000000  0.67828186  0.11300573  1
  C  C71  1  0.50000000  0.67853308  0.43928712  1
  C  C72  1  0.50000000  0.67957060  0.77737807  1
  C  C73  1  0.50000000  0.73894716  0.77608703  1
  C  C74  1  0.50000000  0.28816216  0.80476978  1
  C  C75  1  0.50000000  0.34867641  0.80383371  1
  C  C76  1  0.50000000  0.40943333  0.80433401  1
  C  C77  1  0.50000000  0.47144885  0.14079564  1
  C  C78  1  0.50000000  0.46980856  0.47155951  1
  C  C79  1  0.50000000  0.46973506  0.80527136  1
  C  C80  1  0.50000000  0.53057946  0.13900179  1
  C  C81  1  0.50000000  0.53018817  0.47225725  1
  C  C82  1  0.50000000  0.52982615  0.80576633  1
  C  C83  1  0.50000000  0.58985895  0.13902020  1
  C  C84  1  0.50000000  0.59024811  0.47236058  1
  C  C85  1  0.50000000  0.58990212  0.80590832  1
  C  C86  1  0.50000000  0.64909246  0.14051286  1
  C  C87  1  0.50000000  0.65056054  0.47153181  1
  C  C88  1  0.50000000  0.64963031  0.80561914  1
  C  C89  1  0.50000000  0.70953946  0.80383446  1
  C  C90  1  0.50000000  0.28946744  0.53034537  1
  C  C91  1  0.50000000  0.28814113  0.86056665  1
  C  C92  1  0.50000000  0.34941119  0.53338500  1
  C  C93  1  0.50000000  0.34852752  0.85831278  1
  C  C94  1  0.50000000  0.40810413  0.53568821  1
  C  C95  1  0.50000000  0.40937835  0.85895047  1
  C  C96  1  0.50000000  0.47107651  0.19563631  1
  C  C97  1  0.50000000  0.46913233  0.52735404  1
  C  C98  1  0.50000000  0.46964805  0.86053868  1
  C  C99  1  0.50000000  0.53060271  0.19424710  1
  C  C100  1  0.50000000  0.52994139  0.52756408  1
  C  C101  1  0.50000000  0.52977629  0.86159703  1
  C  C102  1  0.50000000  0.58985158  0.19420309  1
  C  C103  1  0.50000000  0.59053965  0.52751038  1
  C  C104  1  0.50000000  0.59019074  0.86144160  1
  C  C105  1  0.50000000  0.64938367  0.19550325  1
  C  C106  1  0.50000000  0.65150463  0.52736868  1
  C  C107  1  0.50000000  0.65011738  0.86066428  1
  C  C108  1  0.50000000  0.71381117  0.53615356  1
  C  C109  1  0.50000000  0.71032284  0.85889966  1
  C  C110  1  0.50000000  0.25999684  0.55622347  1
  C  C111  1  0.50000000  0.25930296  0.88964126  1
  C  C112  1  0.50000000  0.31910429  0.55819935  1
  C  C113  1  0.50000000  0.31861303  0.88655591  1
  C  C114  1  0.50000000  0.37839264  0.56152254  1
  C  C115  1  0.50000000  0.37866516  0.88428845  1
  C  C116  1  0.50000000  0.44152619  0.22377724  1
  C  C117  1  0.50000000  0.43891953  0.55732058  1
  C  C118  1  0.50000000  0.43955346  0.88712305  1
  C  C119  1  0.50000000  0.50091280  0.22261128  1
  C  C120  1  0.50000000  0.49937664  0.55515615  1
  C  C121  1  0.50000000  0.49969348  0.88920486  1
  C  C122  1  0.50000000  0.56020719  0.22233276  1
  C  C123  1  0.50000000  0.56017636  0.55533357  1
  C  C124  1  0.50000000  0.55997403  0.88933662  1
  C  C125  1  0.50000000  0.61955624  0.22255561  1
  C  C126  1  0.50000000  0.62114250  0.55498748  1
  C  C127  1  0.50000000  0.62038946  0.88913785  1
  C  C128  1  0.50000000  0.67888654  0.22369902  1
  C  C129  1  0.50000000  0.68200974  0.55706290  1
  C  C130  1  0.50000000  0.68067259  0.88768444  1
  C  C131  1  0.50000000  0.74238541  0.56429648  1
  C  C132  1  0.50000000  0.74086288  0.88293122  1
  C  C133  1  0.50000000  0.25932151  0.61007765  1
  C  C134  1  0.50000000  0.25989700  0.94349433  1
  C  C135  1  0.50000000  0.31861267  0.61338959  1
  C  C136  1  0.50000000  0.31905507  0.94173977  1
  C  C137  1  0.50000000  0.37866883  0.61579246  1
  C  C138  1  0.50000000  0.37836485  0.93859358  1
  C  C139  1  0.50000000  0.44154164  0.27641086  1
  C  C140  1  0.50000000  0.43955052  0.61295761  1
  C  C141  1  0.50000000  0.43890497  0.94275061  1
  C  C142  1  0.50000000  0.50092019  0.27748942  1
  C  C143  1  0.50000000  0.49967881  0.61089898  1
  C  C144  1  0.50000000  0.49936635  0.94495932  1
  C  C145  1  0.50000000  0.56018303  0.27776958  1
  C  C146  1  0.50000000  0.55995404  0.61067349  1
  C  C147  1  0.50000000  0.56017078  0.94467421  1
  C  C148  1  0.50000000  0.61953026  0.27753598  1
  C  C149  1  0.50000000  0.62036623  0.61086977  1
  C  C150  1  0.50000000  0.62116369  0.94500791  1
  C  C151  1  0.50000000  0.67886732  0.27639504  1
  C  C152  1  0.50000000  0.68064269  0.61229176  1
  C  C153  1  0.50000000  0.68207018  0.94293422  1
  C  C154  1  0.50000000  0.74084921  0.61690397  1
  C  C155  1  0.50000000  0.74245660  0.93553584  1
  H  H156  1  0.50000000  0.23561358  0.70344197  1
  H  H157  1  0.50000000  0.76237930  0.70434254  1
  H  H158  1  0.50000000  0.23561308  0.79644299  1
  H  H159  1  0.50000000  0.76246581  0.79528283  1
  H  H160  1  0.50000000  0.23703706  0.53478096  1
  H  H161  1  0.50000000  0.23573560  0.87023049  1
  H  H162  1  0.50000000  0.76578089  0.54409509  1
  H  H163  1  0.50000000  0.76332388  0.86082853  1
  H  H164  1  0.50000000  0.23565000  0.62915841  1
  H  H165  1  0.50000000  0.23691090  0.96487029  1
  H  H166  1  0.50000000  0.76340221  0.63875454  1
  H  H167  1  0.50000000  0.76591851  0.95553948  1
  H  H168  1  0.50000000  0.29026699  0.01145744  1
  H  H169  1  0.50000000  0.35036835  0.00880848  1
  H  H170  1  0.50000000  0.40390305  0.00462421  1
  H  H171  1  0.50000000  0.71909058  0.00397358  1
  H  H172  1  0.50000000  0.41728389  0.04834631  1
  H  H173  1  0.50000000  0.41881205  0.36698840  1
  H  H174  1  0.50000000  0.70266209  0.04598024  1
  H  H175  1  0.50000000  0.70173287  0.36726889  1
  H  H176  1  0.50000000  0.41876685  0.13312318  1
  H  H177  1  0.50000000  0.41741672  0.45205073  1
  H  H178  1  0.50000000  0.70175056  0.13259859  1
  H  H179  1  0.50000000  0.70276360  0.45371219  1
  H  H180  1  0.50000000  0.29041763  0.48827452  1
  H  H181  1  0.50000000  0.35050028  0.49129578  1
  H  H182  1  0.50000000  0.40376846  0.49553096  1
  H  H183  1  0.50000000  0.71898152  0.49600905  1
  H  H184  1  0.50000000  0.41813818  0.20395244  1
  H  H185  1  0.50000000  0.70231347  0.20393692  1
  H  H186  1  0.50000000  0.41817695  0.29629662  1
  H  H187  1  0.50000000  0.70226604  0.29624790  1
