# generated using pymatgen
data_H7C36
_symmetry_space_group_name_H-M   'P 1'
_cell_length_a   20.00000000
_cell_length_b   40.19450000
_cell_length_c   25.78846900
_cell_angle_alpha   90.00000000
_cell_angle_beta   90.00000000
_cell_angle_gamma   90.00000000
_symmetry_Int_Tables_number   1
_chemical_formula_structural   H7C36
_chemical_formula_sum   'H28 C144'
_cell_volume   20731.09234330
_cell_formula_units_Z   4
loop_
 _symmetry_equiv_pos_site_id
 _symmetry_equiv_pos_as_xyz
  1  'x, y, z'
loop_
 _atom_site_type_symbol
 _atom_site_label
 _atom_site_symmetry_multiplicity
 _atom_site_fract_x
 _atom_site_fract_y
 _atom_site_fract_z
 _atom_site_occupancy
  C  C0  1  0.50000000  0.28513466  0.61029013  1
  C  C1  1  0.50000000  0.28551464  0.77683631  1
  C  C2  1  0.50000000  0.28548324  0.94402564  1
  C  C3  1  0.50000000  0.31511901  0.63851485  1
  C  C4  1  0.50000000  0.31541227  0.80539280  1
  C  C5  1  0.50000000  0.31551487  0.97090777  1
  C  C6  1  0.50000000  0.28519646  0.55635476  1
  C  C7  1  0.50000000  0.28551130  0.72337177  1
  C  C8  1  0.50000000  0.28532631  0.89008800  1
  C  C9  1  0.50000000  0.34597102  0.61098513  1
  C  C10  1  0.50000000  0.34607105  0.77780078  1
  C  C11  1  0.50000000  0.34605208  0.94443498  1
  C  C12  1  0.50000000  0.37794802  0.13981203  1
  C  C13  1  0.50000000  0.37696927  0.63900928  1
  C  C14  1  0.50000000  0.37790476  0.30688069  1
  C  C15  1  0.50000000  0.37707015  0.80566849  1
  C  C16  1  0.50000000  0.37835571  0.47366827  1
  C  C17  1  0.50000000  0.37751178  0.97224923  1
  C  C18  1  0.50000000  0.31517463  0.52930131  1
  C  C19  1  0.50000000  0.31538111  0.69478759  1
  C  C20  1  0.50000000  0.31523703  0.86173464  1
  C  C21  1  0.50000000  0.34580785  0.55561926  1
  C  C22  1  0.50000000  0.34605308  0.72221657  1
  C  C23  1  0.50000000  0.34613669  0.88907953  1
  C  C24  1  0.50000000  0.40787416  0.11118311  1
  C  C25  1  0.50000000  0.40778823  0.61156608  1
  C  C26  1  0.50000000  0.40782510  0.27820397  1
  C  C27  1  0.50000000  0.40773227  0.77785173  1
  C  C28  1  0.50000000  0.40796863  0.44527360  1
  C  C29  1  0.50000000  0.40800481  0.94411977  1
  C  C30  1  0.50000000  0.43846273  0.13881721  1
  C  C31  1  0.50000000  0.43845679  0.63919933  1
  C  C32  1  0.50000000  0.43846100  0.30574819  1
  C  C33  1  0.50000000  0.43846866  0.80541058  1
  C  C34  1  0.50000000  0.43871532  0.47264919  1
  C  C35  1  0.50000000  0.43862695  0.97195070  1
  C  C36  1  0.50000000  0.37846757  0.02638229  1
  C  C37  1  0.50000000  0.37736834  0.52782248  1
  C  C38  1  0.50000000  0.37794578  0.19329944  1
  C  C39  1  0.50000000  0.37703446  0.69431419  1
  C  C40  1  0.50000000  0.37795020  0.36032195  1
  C  C41  1  0.50000000  0.37707816  0.86096059  1
  C  C42  1  0.50000000  0.40803966  0.05481827  1
  C  C43  1  0.50000000  0.40793532  0.55589781  1
  C  C44  1  0.50000000  0.40784048  0.22199409  1
  C  C45  1  0.50000000  0.40772193  0.72208206  1
  C  C46  1  0.50000000  0.40786228  0.38894854  1
  C  C47  1  0.50000000  0.40785909  0.88844862  1
  C  C48  1  0.50000000  0.46938512  0.11092600  1
  C  C49  1  0.50000000  0.46931903  0.61137473  1
  C  C50  1  0.50000000  0.46937015  0.27782225  1
  C  C51  1  0.50000000  0.46931552  0.77765124  1
  C  C52  1  0.50000000  0.46941938  0.44459011  1
  C  C53  1  0.50000000  0.46941270  0.94405415  1
  C  C54  1  0.50000000  0.49999991  0.13862837  1
  C  C55  1  0.50000000  0.49999045  0.63904049  1
  C  C56  1  0.50000000  0.50000004  0.30548895  1
  C  C57  1  0.50000000  0.49999818  0.80531789  1
  C  C58  1  0.50000000  0.49998973  0.47237121  1
  C  C59  1  0.50000000  0.50000046  0.97184721  1
  C  C60  1  0.50000000  0.43875967  0.02735008  1
  C  C61  1  0.50000000  0.43857450  0.52807678  1
  C  C62  1  0.50000000  0.43845893  0.19443634  1
  C  C63  1  0.50000000  0.43846445  0.69455942  1
  C  C64  1  0.50000000  0.43845924  0.36132498  1
  C  C65  1  0.50000000  0.43849930  0.86080454  1
  C  C66  1  0.50000000  0.46942945  0.05545274  1
  C  C67  1  0.50000000  0.46937522  0.55601147  1
  C  C68  1  0.50000000  0.46937207  0.22235984  1
  C  C69  1  0.50000000  0.46931377  0.72230585  1
  C  C70  1  0.50000000  0.46939308  0.38917098  1
  C  C71  1  0.50000000  0.46934575  0.88868497  1
  C  C72  1  0.50000000  0.53061579  0.11092808  1
  C  C73  1  0.50000000  0.53066138  0.61138271  1
  C  C74  1  0.50000000  0.53063025  0.27782048  1
  C  C75  1  0.50000000  0.53068147  0.77765973  1
  C  C76  1  0.50000000  0.53056170  0.44459402  1
  C  C77  1  0.50000000  0.53059032  0.94406050  1
  C  C78  1  0.50000000  0.56153903  0.13881836  1
  C  C79  1  0.50000000  0.56152382  0.63921055  1
  C  C80  1  0.50000000  0.56153745  0.30574889  1
  C  C81  1  0.50000000  0.56152825  0.80542245  1
  C  C82  1  0.50000000  0.56126258  0.47265428  1
  C  C83  1  0.50000000  0.56137886  0.97195518  1
  C  C84  1  0.50000000  0.50000147  0.02767790  1
  C  C85  1  0.50000000  0.49998970  0.52822904  1
  C  C86  1  0.50000000  0.50000025  0.19464507  1
  C  C87  1  0.50000000  0.49999477  0.69466079  1
  C  C88  1  0.50000000  0.49999809  0.36146782  1
  C  C89  1  0.50000000  0.50000201  0.86097043  1
  C  C90  1  0.50000000  0.53057297  0.05545452  1
  C  C91  1  0.50000000  0.53060229  0.55601916  1
  C  C92  1  0.50000000  0.53062899  0.22235827  1
  C  C93  1  0.50000000  0.53067452  0.72231483  1
  C  C94  1  0.50000000  0.53059982  0.38917466  1
  C  C95  1  0.50000000  0.53065883  0.88868971  1
  C  C96  1  0.50000000  0.59212662  0.11118408  1
  C  C97  1  0.50000000  0.59219177  0.61158196  1
  C  C98  1  0.50000000  0.59217495  0.27820673  1
  C  C99  1  0.50000000  0.59226292  0.77786423  1
  C  C100  1  0.50000000  0.59200520  0.44527002  1
  C  C101  1  0.50000000  0.59200328  0.94412798  1
  C  C102  1  0.50000000  0.62205167  0.13981292  1
  C  C103  1  0.50000000  0.62302118  0.63901586  1
  C  C104  1  0.50000000  0.62209376  0.30688908  1
  C  C105  1  0.50000000  0.62292508  0.80569419  1
  C  C106  1  0.50000000  0.62161420  0.47366256  1
  C  C107  1  0.50000000  0.62249846  0.97225896  1
  C  C108  1  0.50000000  0.56124420  0.02735199  1
  C  C109  1  0.50000000  0.56139989  0.52808445  1
  C  C110  1  0.50000000  0.56154303  0.19443625  1
  C  C111  1  0.50000000  0.56152271  0.69457370  1
  C  C112  1  0.50000000  0.56153341  0.36132273  1
  C  C113  1  0.50000000  0.56150582  0.86081257  1
  C  C114  1  0.50000000  0.59196416  0.05481975  1
  C  C115  1  0.50000000  0.59203801  0.55590434  1
  C  C116  1  0.50000000  0.59216048  0.22199594  1
  C  C117  1  0.50000000  0.59226693  0.72209573  1
  C  C118  1  0.50000000  0.59212667  0.38894781  1
  C  C119  1  0.50000000  0.59214579  0.88846293  1
  C  C120  1  0.50000000  0.65400751  0.61095648  1
  C  C121  1  0.50000000  0.65392832  0.77782852  1
  C  C122  1  0.50000000  0.65395816  0.94444481  1
  C  C123  1  0.50000000  0.68488254  0.63840672  1
  C  C124  1  0.50000000  0.68459206  0.80541354  1
  C  C125  1  0.50000000  0.68449973  0.97089872  1
  C  C126  1  0.50000000  0.62153980  0.02638848  1
  C  C127  1  0.50000000  0.62259285  0.52780905  1
  C  C128  1  0.50000000  0.62205431  0.19329867  1
  C  C129  1  0.50000000  0.62296312  0.69433662  1
  C  C130  1  0.50000000  0.62204569  0.36033104  1
  C  C131  1  0.50000000  0.62292294  0.86097728  1
  C  C132  1  0.50000000  0.65414943  0.55559321  1
  C  C133  1  0.50000000  0.65393760  0.72226636  1
  C  C134  1  0.50000000  0.65386687  0.88908976  1
  C  C135  1  0.50000000  0.71486054  0.61020238  1
  C  C136  1  0.50000000  0.71449105  0.77685028  1
  C  C137  1  0.50000000  0.71452931  0.94401542  1
  C  C138  1  0.50000000  0.68478388  0.52926374  1
  C  C139  1  0.50000000  0.68461510  0.69475605  1
  C  C140  1  0.50000000  0.68476465  0.86175038  1
  C  C141  1  0.50000000  0.71476834  0.55627179  1
  C  C142  1  0.50000000  0.71448790  0.72337564  1
  C  C143  1  0.50000000  0.71468310  0.89007971  1
  H  H144  1  0.50000000  0.26123060  0.63041541  1
  H  H145  1  0.50000000  0.26156377  0.79686504  1
  H  H146  1  0.50000000  0.26190793  0.96532240  1
  H  H147  1  0.50000000  0.26165136  0.53493827  1
  H  H148  1  0.50000000  0.26155597  0.70339090  1
  H  H149  1  0.50000000  0.26140165  0.86998065  1
  H  H150  1  0.50000000  0.73875822  0.63035770  1
  H  H151  1  0.50000000  0.73844231  0.79688939  1
  H  H152  1  0.50000000  0.73810810  0.96529882  1
  H  H153  1  0.50000000  0.73830094  0.53481432  1
  H  H154  1  0.50000000  0.73845059  0.70341756  1
  H  H155  1  0.50000000  0.73860085  0.86995961  1
  H  H156  1  0.50000000  0.68572748  0.48690814  1
  H  H157  1  0.50000000  0.31424776  0.48694366  1
  H  H158  1  0.50000000  0.64619184  0.12027246  1
  H  H159  1  0.50000000  0.64611341  0.28706420  1
  H  H160  1  0.50000000  0.64498893  0.45238235  1
  H  H161  1  0.50000000  0.68526845  0.01327632  1
  H  H162  1  0.50000000  0.64496904  0.04746254  1
  H  H163  1  0.50000000  0.64602407  0.21321131  1
  H  H164  1  0.50000000  0.64609142  0.38013724  1
  H  H165  1  0.50000000  0.31474930  0.01328100  1
  H  H166  1  0.50000000  0.35380727  0.12027306  1
  H  H167  1  0.50000000  0.35388586  0.28705643  1
  H  H168  1  0.50000000  0.35498793  0.45236741  1
  H  H169  1  0.50000000  0.35503769  0.04745204  1
  H  H170  1  0.50000000  0.35397690  0.21321714  1
  H  H171  1  0.50000000  0.35390874  0.38013432  1
