# generated using pymatgen
data_H5C26
_symmetry_space_group_name_H-M   'P 1'
_cell_length_a   10.00000000
_cell_length_b   41.10890000
_cell_length_c   25.79626398
_cell_angle_alpha   90.00000000
_cell_angle_beta   90.00000000
_cell_angle_gamma   90.00000000
_symmetry_Int_Tables_number   1
_chemical_formula_structural   H5C26
_chemical_formula_sum   'H30 C156'
_cell_volume   10604.56036440
_cell_formula_units_Z   6
loop_
 _symmetry_equiv_pos_site_id
 _symmetry_equiv_pos_as_xyz
  1  'x, y, z'
loop_
 _atom_site_type_symbol
 _atom_site_label
 _atom_site_symmetry_multiplicity
 _atom_site_fract_x
 _atom_site_fract_y
 _atom_site_fract_z
 _atom_site_occupancy
  C  C0  1  0.50000000  0.28901713  0.63820035  1
  C  C1  1  0.50000000  0.29000579  0.97183837  1
  C  C2  1  0.50000000  0.34955803  0.63906633  1
  C  C3  1  0.50000000  0.34981229  0.97026424  1
  C  C4  1  0.50000000  0.41059404  0.30681684  1
  C  C5  1  0.50000000  0.40967001  0.63908930  1
  C  C6  1  0.50000000  0.41022553  0.97227305  1
  C  C7  1  0.50000000  0.46982908  0.30567084  1
  C  C8  1  0.50000000  0.46976871  0.63901502  1
  C  C9  1  0.50000000  0.46998380  0.97195765  1
  C  C10  1  0.50000000  0.52995817  0.30545696  1
  C  C11  1  0.50000000  0.53001066  0.63894738  1
  C  C12  1  0.50000000  0.53002914  0.97181287  1
  C  C13  1  0.50000000  0.59007647  0.30567972  1
  C  C14  1  0.50000000  0.59019740  0.63911009  1
  C  C15  1  0.50000000  0.59005219  0.97197359  1
  C  C16  1  0.50000000  0.64929855  0.30675461  1
  C  C17  1  0.50000000  0.65026036  0.63900992  1
  C  C18  1  0.50000000  0.64985040  0.97224342  1
  C  C19  1  0.50000000  0.71074768  0.63831004  1
  C  C20  1  0.50000000  0.71058239  0.97081387  1
  C  C21  1  0.50000000  0.28912685  0.69463715  1
  C  C22  1  0.50000000  0.34957034  0.69467286  1
  C  C23  1  0.50000000  0.41112665  0.02629454  1
  C  C24  1  0.50000000  0.41062607  0.36031572  1
  C  C25  1  0.50000000  0.40964478  0.69439820  1
  C  C26  1  0.50000000  0.47009703  0.02738628  1
  C  C27  1  0.50000000  0.46983971  0.36127658  1
  C  C28  1  0.50000000  0.46975343  0.69458544  1
  C  C29  1  0.50000000  0.52999765  0.02758558  1
  C  C30  1  0.50000000  0.52997172  0.36144504  1
  C  C31  1  0.50000000  0.53001818  0.69463329  1
  C  C32  1  0.50000000  0.58989275  0.02737081  1
  C  C33  1  0.50000000  0.59008804  0.36127710  1
  C  C34  1  0.50000000  0.59022147  0.69449841  1
  C  C35  1  0.50000000  0.64888094  0.02639575  1
  C  C36  1  0.50000000  0.64927531  0.36025976  1
  C  C37  1  0.50000000  0.65026712  0.69434462  1
  C  C38  1  0.50000000  0.71057253  0.69466974  1
  C  C39  1  0.50000000  0.25999136  0.72322029  1
  C  C40  1  0.50000000  0.31922367  0.72220104  1
  C  C41  1  0.50000000  0.37946585  0.72213438  1
  C  C42  1  0.50000000  0.44007433  0.05478029  1
  C  C43  1  0.50000000  0.43992557  0.38891365  1
  C  C44  1  0.50000000  0.43975502  0.72216703  1
  C  C45  1  0.50000000  0.50011326  0.05538119  1
  C  C46  1  0.50000000  0.50005661  0.38918498  1
  C  C47  1  0.50000000  0.49992192  0.72229810  1
  C  C48  1  0.50000000  0.55986629  0.05536171  1
  C  C49  1  0.50000000  0.55986509  0.38917879  1
  C  C50  1  0.50000000  0.56001841  0.72224971  1
  C  C51  1  0.50000000  0.61994135  0.05478412  1
  C  C52  1  0.50000000  0.62001091  0.38886701  1
  C  C53  1  0.50000000  0.62028640  0.72208335  1
  C  C54  1  0.50000000  0.68057572  0.72220834  1
  C  C55  1  0.50000000  0.73978733  0.72327623  1
  C  C56  1  0.50000000  0.25999510  0.77683690  1
  C  C57  1  0.50000000  0.31922674  0.77779702  1
  C  C58  1  0.50000000  0.37946558  0.77786063  1
  C  C59  1  0.50000000  0.43991857  0.11108690  1
  C  C60  1  0.50000000  0.44007879  0.44521820  1
  C  C61  1  0.50000000  0.43975445  0.77782301  1
  C  C62  1  0.50000000  0.50005403  0.11080486  1
  C  C63  1  0.50000000  0.50011269  0.44460205  1
  C  C64  1  0.50000000  0.49992289  0.77768246  1
  C  C65  1  0.50000000  0.55986851  0.11081344  1
  C  C66  1  0.50000000  0.55986531  0.44462757  1
  C  C67  1  0.50000000  0.56001790  0.77772455  1
  C  C68  1  0.50000000  0.62002198  0.11112490  1
  C  C69  1  0.50000000  0.61993268  0.44520700  1
  C  C70  1  0.50000000  0.62028606  0.77789999  1
  C  C71  1  0.50000000  0.68057051  0.77776560  1
  C  C72  1  0.50000000  0.73978264  0.77675637  1
  C  C73  1  0.50000000  0.28913820  0.80539077  1
  C  C74  1  0.50000000  0.34957244  0.80533639  1
  C  C75  1  0.50000000  0.41063397  0.13973226  1
  C  C76  1  0.50000000  0.41111875  0.47367745  1
  C  C77  1  0.50000000  0.40964569  0.80559598  1
  C  C78  1  0.50000000  0.46983653  0.13871707  1
  C  C79  1  0.50000000  0.47009894  0.47260242  1
  C  C80  1  0.50000000  0.46975478  0.80539988  1
  C  C81  1  0.50000000  0.52997231  0.13853788  1
  C  C82  1  0.50000000  0.52999766  0.47239720  1
  C  C83  1  0.50000000  0.53001751  0.80535132  1
  C  C84  1  0.50000000  0.59009406  0.13871340  1
  C  C85  1  0.50000000  0.58989015  0.47262157  1
  C  C86  1  0.50000000  0.59021867  0.80548013  1
  C  C87  1  0.50000000  0.64926932  0.13978341  1
  C  C88  1  0.50000000  0.64888000  0.47356183  1
  C  C89  1  0.50000000  0.65026859  0.80565701  1
  C  C90  1  0.50000000  0.71055394  0.80532314  1
  C  C91  1  0.50000000  0.28999850  0.52826504  1
  C  C92  1  0.50000000  0.28902717  0.86181860  1
  C  C93  1  0.50000000  0.34980229  0.52975020  1
  C  C94  1  0.50000000  0.34955929  0.86094330  1
  C  C95  1  0.50000000  0.41060700  0.19322343  1
  C  C96  1  0.50000000  0.41021371  0.52770851  1
  C  C97  1  0.50000000  0.40966949  0.86090394  1
  C  C98  1  0.50000000  0.46982780  0.19432921  1
  C  C99  1  0.50000000  0.46998374  0.52803356  1
  C  C100  1  0.50000000  0.46977071  0.86096814  1
  C  C101  1  0.50000000  0.52995823  0.19452388  1
  C  C102  1  0.50000000  0.53003536  0.52817280  1
  C  C103  1  0.50000000  0.53001067  0.86103483  1
  C  C104  1  0.50000000  0.59008063  0.19431841  1
  C  C105  1  0.50000000  0.59006609  0.52802078  1
  C  C106  1  0.50000000  0.59019158  0.86085781  1
  C  C107  1  0.50000000  0.64929004  0.19328062  1
  C  C108  1  0.50000000  0.64986031  0.52772423  1
  C  C109  1  0.50000000  0.65026020  0.86099325  1
  C  C110  1  0.50000000  0.71054792  0.52920446  1
  C  C111  1  0.50000000  0.71073429  0.86166496  1
  C  C112  1  0.50000000  0.26061201  0.55463573  1
  C  C113  1  0.50000000  0.26018336  0.89106072  1
  C  C114  1  0.50000000  0.31967642  0.55600909  1
  C  C115  1  0.50000000  0.31941560  0.88854294  1
  C  C116  1  0.50000000  0.37934330  0.55566656  1
  C  C117  1  0.50000000  0.37954562  0.88854230  1
  C  C118  1  0.50000000  0.43987290  0.22191030  1
  C  C119  1  0.50000000  0.44003644  0.55580853  1
  C  C120  1  0.50000000  0.43990477  0.88853123  1
  C  C121  1  0.50000000  0.50003909  0.22226650  1
  C  C122  1  0.50000000  0.50007835  0.55592302  1
  C  C123  1  0.50000000  0.50000323  0.88874540  1
  C  C124  1  0.50000000  0.55987115  0.22225841  1
  C  C125  1  0.50000000  0.55995141  0.55589590  1
  C  C126  1  0.50000000  0.56000749  0.88869586  1
  C  C127  1  0.50000000  0.62002732  0.22191291  1
  C  C128  1  0.50000000  0.62005281  0.55579985  1
  C  C129  1  0.50000000  0.62017369  0.88849755  1
  C  C130  1  0.50000000  0.68062447  0.55560527  1
  C  C131  1  0.50000000  0.68053234  0.88904943  1
  C  C132  1  0.50000000  0.73991071  0.55600879  1
  C  C133  1  0.50000000  0.73998154  0.88999969  1
  C  C134  1  0.50000000  0.26015701  0.60898484  1
  C  C135  1  0.50000000  0.26064237  0.94539162  1
  C  C136  1  0.50000000  0.31941211  0.61149736  1
  C  C137  1  0.50000000  0.31967840  0.94404935  1
  C  C138  1  0.50000000  0.37954496  0.61145607  1
  C  C139  1  0.50000000  0.37934778  0.94433374  1
  C  C140  1  0.50000000  0.43986816  0.27812134  1
  C  C141  1  0.50000000  0.43990169  0.61144799  1
  C  C142  1  0.50000000  0.44004250  0.94417253  1
  C  C143  1  0.50000000  0.50003785  0.27772179  1
  C  C144  1  0.50000000  0.50000226  0.61123663  1
  C  C145  1  0.50000000  0.50007491  0.94406514  1
  C  C146  1  0.50000000  0.55987075  0.27772811  1
  C  C147  1  0.50000000  0.56000990  0.61128272  1
  C  C148  1  0.50000000  0.55994063  0.94409085  1
  C  C149  1  0.50000000  0.62002940  0.27811533  1
  C  C150  1  0.50000000  0.62018387  0.61148165  1
  C  C151  1  0.50000000  0.62001760  0.94418019  1
  C  C152  1  0.50000000  0.68052517  0.61094869  1
  C  C153  1  0.50000000  0.68066354  0.94441119  1
  C  C154  1  0.50000000  0.73999736  0.60993576  1
  C  C155  1  0.50000000  0.73991543  0.94392026  1
  H  H156  1  0.50000000  0.23660871  0.70307129  1
  H  H157  1  0.50000000  0.76321170  0.70324843  1
  H  H158  1  0.50000000  0.23662400  0.79702343  1
  H  H159  1  0.50000000  0.76318625  0.79685382  1
  H  H160  1  0.50000000  0.23762871  0.53307906  1
  H  H161  1  0.50000000  0.23651800  0.87174724  1
  H  H162  1  0.50000000  0.76290269  0.53446502  1
  H  H163  1  0.50000000  0.76339713  0.86999100  1
  H  H164  1  0.50000000  0.23654999  0.62849895  1
  H  H165  1  0.50000000  0.23760570  0.96676926  1
  H  H166  1  0.50000000  0.76343250  0.62986641  1
  H  H167  1  0.50000000  0.76297496  0.96525368  1
  H  H168  1  0.50000000  0.29067256  0.01431848  1
  H  H169  1  0.50000000  0.34892040  0.01262488  1
  H  H170  1  0.50000000  0.38715918  0.28678810  1
  H  H171  1  0.50000000  0.67271209  0.28669920  1
  H  H172  1  0.50000000  0.71128467  0.01315697  1
  H  H173  1  0.50000000  0.38820321  0.04735331  1
  H  H174  1  0.50000000  0.38716404  0.38032207  1
  H  H175  1  0.50000000  0.67177032  0.04751890  1
  H  H176  1  0.50000000  0.67272243  0.38027139  1
  H  H177  1  0.50000000  0.38712487  0.11989771  1
  H  H178  1  0.50000000  0.38822971  0.45249587  1
  H  H179  1  0.50000000  0.67275837  0.11992824  1
  H  H180  1  0.50000000  0.67173429  0.45232087  1
  H  H181  1  0.50000000  0.29068871  0.48582572  1
  H  H182  1  0.50000000  0.34890725  0.48739012  1
  H  H183  1  0.50000000  0.38715758  0.21320298  1
  H  H184  1  0.50000000  0.67272174  0.21327963  1
  H  H185  1  0.50000000  0.71124492  0.48689626  1
