# generated using pymatgen
data_H5C26
_symmetry_space_group_name_H-M   'P 1'
_cell_length_a   10.00000000
_cell_length_b   41.10890000
_cell_length_c   25.79453349
_cell_angle_alpha   90.00000000
_cell_angle_beta   90.00000000
_cell_angle_gamma   90.00000000
_symmetry_Int_Tables_number   1
_chemical_formula_structural   H5C26
_chemical_formula_sum   'H30 C156'
_cell_volume   10603.84897620
_cell_formula_units_Z   6
loop_
 _symmetry_equiv_pos_site_id
 _symmetry_equiv_pos_as_xyz
  1  'x, y, z'
loop_
 _atom_site_type_symbol
 _atom_site_label
 _atom_site_symmetry_multiplicity
 _atom_site_fract_x
 _atom_site_fract_y
 _atom_site_fract_z
 _atom_site_occupancy
  C  C0  1  0.50000000  0.28906850  0.63783699  1
  C  C1  1  0.50000000  0.29013124  0.97245889  1
  C  C2  1  0.50000000  0.34942427  0.63924028  1
  C  C3  1  0.50000000  0.35013477  0.97086401  1
  C  C4  1  0.50000000  0.40959309  0.63934049  1
  C  C5  1  0.50000000  0.40975782  0.96998594  1
  C  C6  1  0.50000000  0.47070488  0.30683000  1
  C  C7  1  0.50000000  0.46960502  0.63909541  1
  C  C8  1  0.50000000  0.47018630  0.97227174  1
  C  C9  1  0.50000000  0.52994154  0.30567570  1
  C  C10  1  0.50000000  0.52973682  0.63897559  1
  C  C11  1  0.50000000  0.52999659  0.97192915  1
  C  C12  1  0.50000000  0.59008507  0.30547207  1
  C  C13  1  0.50000000  0.58993874  0.63902919  1
  C  C14  1  0.50000000  0.59003998  0.97182465  1
  C  C15  1  0.50000000  0.65016950  0.30569279  1
  C  C16  1  0.50000000  0.64999875  0.63929785  1
  C  C17  1  0.50000000  0.64996741  0.97197672  1
  C  C18  1  0.50000000  0.70936962  0.30653206  1
  C  C19  1  0.50000000  0.71031262  0.63856070  1
  C  C20  1  0.50000000  0.70976560  0.97200888  1
  C  C21  1  0.50000000  0.28908178  0.69440222  1
  C  C22  1  0.50000000  0.34940236  0.69480055  1
  C  C23  1  0.50000000  0.40954632  0.69476361  1
  C  C24  1  0.50000000  0.47113533  0.02624561  1
  C  C25  1  0.50000000  0.47072498  0.36030794  1
  C  C26  1  0.50000000  0.46959789  0.69451359  1
  C  C27  1  0.50000000  0.53017009  0.02737651  1
  C  C28  1  0.50000000  0.52994591  0.36131086  1
  C  C29  1  0.50000000  0.52974236  0.69461593  1
  C  C30  1  0.50000000  0.59013608  0.02754795  1
  C  C31  1  0.50000000  0.59011773  0.36146661  1
  C  C32  1  0.50000000  0.58994465  0.69456247  1
  C  C33  1  0.50000000  0.65011932  0.02733488  1
  C  C34  1  0.50000000  0.65022564  0.36128233  1
  C  C35  1  0.50000000  0.65003103  0.69448726  1
  C  C36  1  0.50000000  0.70930840  0.02648642  1
  C  C37  1  0.50000000  0.70940511  0.36006350  1
  C  C38  1  0.50000000  0.71031313  0.69442218  1
  C  C39  1  0.50000000  0.26002156  0.72316902  1
  C  C40  1  0.50000000  0.31911077  0.72220519  1
  C  C41  1  0.50000000  0.37933886  0.72220579  1
  C  C42  1  0.50000000  0.43955443  0.72223280  1
  C  C43  1  0.50000000  0.50014611  0.05477377  1
  C  C44  1  0.50000000  0.50001711  0.38895469  1
  C  C45  1  0.50000000  0.49972093  0.72224091  1
  C  C46  1  0.50000000  0.56021859  0.05537315  1
  C  C47  1  0.50000000  0.56015820  0.38920982  1
  C  C48  1  0.50000000  0.55980232  0.72230474  1
  C  C49  1  0.50000000  0.62007415  0.05529045  1
  C  C50  1  0.50000000  0.61998107  0.38917814  1
  C  C51  1  0.50000000  0.61989403  0.72219919  1
  C  C52  1  0.50000000  0.68040290  0.05477080  1
  C  C53  1  0.50000000  0.68020640  0.38878687  1
  C  C54  1  0.50000000  0.68028848  0.72214209  1
  C  C55  1  0.50000000  0.73969126  0.72337369  1
  C  C56  1  0.50000000  0.26002406  0.77690086  1
  C  C57  1  0.50000000  0.31911316  0.77780757  1
  C  C58  1  0.50000000  0.37933766  0.77780243  1
  C  C59  1  0.50000000  0.43955224  0.77777372  1
  C  C60  1  0.50000000  0.50001259  0.11104273  1
  C  C61  1  0.50000000  0.50014485  0.44522384  1
  C  C62  1  0.50000000  0.49972217  0.77775581  1
  C  C63  1  0.50000000  0.56015688  0.11077582  1
  C  C64  1  0.50000000  0.56021328  0.44460989  1
  C  C65  1  0.50000000  0.55980542  0.77767566  1
  C  C66  1  0.50000000  0.61998823  0.11079988  1
  C  C67  1  0.50000000  0.62006771  0.44468636  1
  C  C68  1  0.50000000  0.61989528  0.77777081  1
  C  C69  1  0.50000000  0.68021685  0.11117051  1
  C  C70  1  0.50000000  0.68039078  0.44519624  1
  C  C71  1  0.50000000  0.68028368  0.77782121  1
  C  C72  1  0.50000000  0.73968737  0.77665568  1
  C  C73  1  0.50000000  0.28909301  0.80563619  1
  C  C74  1  0.50000000  0.34940217  0.80521830  1
  C  C75  1  0.50000000  0.40954296  0.80525099  1
  C  C76  1  0.50000000  0.47073294  0.13973221  1
  C  C77  1  0.50000000  0.47111894  0.47372741  1
  C  C78  1  0.50000000  0.46959778  0.80548854  1
  C  C79  1  0.50000000  0.52994537  0.13868344  1
  C  C80  1  0.50000000  0.53016747  0.47261637  1
  C  C81  1  0.50000000  0.52974615  0.80537188  1
  C  C82  1  0.50000000  0.59011840  0.13851675  1
  C  C83  1  0.50000000  0.59013000  0.47242867  1
  C  C84  1  0.50000000  0.58994872  0.80541621  1
  C  C85  1  0.50000000  0.65022966  0.13870306  1
  C  C86  1  0.50000000  0.65011517  0.47263725  1
  C  C87  1  0.50000000  0.65003064  0.80548168  1
  C  C88  1  0.50000000  0.70939754  0.13993608  1
  C  C89  1  0.50000000  0.70931511  0.47346318  1
  C  C90  1  0.50000000  0.71029975  0.80556291  1
  C  C91  1  0.50000000  0.29012543  0.52760283  1
  C  C92  1  0.50000000  0.28907258  0.86219542  1
  C  C93  1  0.50000000  0.35012919  0.52922995  1
  C  C94  1  0.50000000  0.34942440  0.86078444  1
  C  C95  1  0.50000000  0.40974866  0.53001764  1
  C  C96  1  0.50000000  0.40958582  0.86067529  1
  C  C97  1  0.50000000  0.47072003  0.19320061  1
  C  C98  1  0.50000000  0.47017099  0.52770751  1
  C  C99  1  0.50000000  0.46960448  0.86090274  1
  C  C100  1  0.50000000  0.52994055  0.19432176  1
  C  C101  1  0.50000000  0.52999084  0.52806066  1
  C  C102  1  0.50000000  0.52974223  0.86100753  1
  C  C103  1  0.50000000  0.59008594  0.19450809  1
  C  C104  1  0.50000000  0.59003795  0.52815164  1
  C  C105  1  0.50000000  0.58994181  0.86094633  1
  C  C106  1  0.50000000  0.65017222  0.19429030  1
  C  C107  1  0.50000000  0.64997018  0.52799027  1
  C  C108  1  0.50000000  0.64999497  0.86066575  1
  C  C109  1  0.50000000  0.70935516  0.19345010  1
  C  C110  1  0.50000000  0.70977650  0.52794124  1
  C  C111  1  0.50000000  0.71029348  0.86140652  1
  C  C112  1  0.50000000  0.26080238  0.55409866  1
  C  C113  1  0.50000000  0.26026252  0.89150438  1
  C  C114  1  0.50000000  0.31998209  0.55520322  1
  C  C115  1  0.50000000  0.31951283  0.88896930  1
  C  C116  1  0.50000000  0.37956008  0.55640235  1
  C  C117  1  0.50000000  0.37946653  0.88790399  1
  C  C118  1  0.50000000  0.43930360  0.55573117  1
  C  C119  1  0.50000000  0.43963156  0.88839786  1
  C  C120  1  0.50000000  0.50000146  0.22190990  1
  C  C121  1  0.50000000  0.50002913  0.55586805  1
  C  C122  1  0.50000000  0.49991451  0.88856931  1
  C  C123  1  0.50000000  0.56015575  0.22226752  1
  C  C124  1  0.50000000  0.56003827  0.55595578  1
  C  C125  1  0.50000000  0.55994771  0.88876838  1
  C  C126  1  0.50000000  0.61998009  0.22225786  1
  C  C127  1  0.50000000  0.61986853  0.55588124  1
  C  C128  1  0.50000000  0.61995261  0.88859693  1
  C  C129  1  0.50000000  0.68009235  0.22194655  1
  C  C130  1  0.50000000  0.67982761  0.55597881  1
  C  C131  1  0.50000000  0.68013227  0.88851585  1
  C  C132  1  0.50000000  0.73958221  0.55606154  1
  C  C133  1  0.50000000  0.73973755  0.89069108  1
  C  C134  1  0.50000000  0.26025617  0.60854249  1
  C  C135  1  0.50000000  0.26082011  0.94593313  1
  C  C136  1  0.50000000  0.31950734  0.61107211  1
  C  C137  1  0.50000000  0.31999329  0.94486022  1
  C  C138  1  0.50000000  0.37947121  0.61213371  1
  C  C139  1  0.50000000  0.37955771  0.94365005  1
  C  C140  1  0.50000000  0.43963278  0.61160380  1
  C  C141  1  0.50000000  0.43930874  0.94427007  1
  C  C142  1  0.50000000  0.49999554  0.27811745  1
  C  C143  1  0.50000000  0.49990958  0.61141490  1
  C  C144  1  0.50000000  0.50003959  0.94411657  1
  C  C145  1  0.50000000  0.56015323  0.27771581  1
  C  C146  1  0.50000000  0.55994320  0.61121105  1
  C  C147  1  0.50000000  0.56004134  0.94402842  1
  C  C148  1  0.50000000  0.61997933  0.27773265  1
  C  C149  1  0.50000000  0.61995144  0.61137331  1
  C  C150  1  0.50000000  0.61986640  0.94409051  1
  C  C151  1  0.50000000  0.68009943  0.27806982  1
  C  C152  1  0.50000000  0.68014347  0.61145224  1
  C  C153  1  0.50000000  0.67981472  0.94398519  1
  C  C154  1  0.50000000  0.73976367  0.60927245  1
  C  C155  1  0.50000000  0.73956173  0.94387689  1
  H  H156  1  0.50000000  0.23660021  0.70312211  1
  H  H157  1  0.50000000  0.76308375  0.70325125  1
  H  H158  1  0.50000000  0.23661405  0.79698031  1
  H  H159  1  0.50000000  0.76306364  0.79683688  1
  H  H160  1  0.50000000  0.23780006  0.53261092  1
  H  H161  1  0.50000000  0.23657774  0.87224775  1
  H  H162  1  0.50000000  0.76249540  0.53425195  1
  H  H163  1  0.50000000  0.76319412  0.87075482  1
  H  H164  1  0.50000000  0.23662856  0.62800049  1
  H  H165  1  0.50000000  0.23780040  0.96737265  1
  H  H166  1  0.50000000  0.76319195  0.62931102  1
  H  H167  1  0.50000000  0.76253311  0.96548507  1
  H  H168  1  0.50000000  0.29069679  0.01494282  1
  H  H169  1  0.50000000  0.35061462  0.01339654  1
  H  H170  1  0.50000000  0.40889568  0.01232955  1
  H  H171  1  0.50000000  0.44729656  0.28677890  1
  H  H172  1  0.50000000  0.73269547  0.28624649  1
  H  H173  1  0.50000000  0.44817150  0.04724922  1
  H  H174  1  0.50000000  0.44729980  0.38037658  1
  H  H175  1  0.50000000  0.73281676  0.04626577  1
  H  H176  1  0.50000000  0.73279376  0.38018620  1
  H  H177  1  0.50000000  0.44725755  0.11982963  1
  H  H178  1  0.50000000  0.44819056  0.45258526  1
  H  H179  1  0.50000000  0.73284710  0.12000081  1
  H  H180  1  0.50000000  0.73277834  0.45354898  1
  H  H181  1  0.50000000  0.29071304  0.48513618  1
  H  H182  1  0.50000000  0.35062048  0.48673338  1
  H  H183  1  0.50000000  0.40888778  0.48765997  1
  H  H184  1  0.50000000  0.44729484  0.21319281  1
  H  H185  1  0.50000000  0.73271803  0.21360514  1
