# generated using pymatgen
data_H27C100
_symmetry_space_group_name_H-M   'P 1'
_cell_length_a   20.00000000
_cell_length_b   40.19450000
_cell_length_c   34.67352858
_cell_angle_alpha   90.00000000
_cell_angle_beta   90.00000000
_cell_angle_gamma   90.00000000
_symmetry_Int_Tables_number   1
_chemical_formula_structural   H27C100
_chemical_formula_sum   'H54 C200'
_cell_volume   27873.70289274
_cell_formula_units_Z   2
loop_
 _symmetry_equiv_pos_site_id
 _symmetry_equiv_pos_as_xyz
  1  'x, y, z'
loop_
 _atom_site_type_symbol
 _atom_site_label
 _atom_site_symmetry_multiplicity
 _atom_site_fract_x
 _atom_site_fract_y
 _atom_site_fract_z
 _atom_site_occupancy
  C  C0  1  0.50000000  0.28015530  0.07995239  1
  C  C1  1  0.50000000  0.28401720  0.58359082  1
  C  C2  1  0.50000000  0.28140724  0.45935810  1
  C  C3  1  0.50000000  0.28348094  0.95560368  1
  C  C4  1  0.50000000  0.27798765  0.20628078  1
  C  C5  1  0.50000000  0.28463527  0.70752486  1
  C  C6  1  0.50000000  0.27856639  0.33340738  1
  C  C7  1  0.50000000  0.28459827  0.83176960  1
  C  C8  1  0.50000000  0.30949996  0.10270691  1
  C  C9  1  0.50000000  0.31425912  0.60445410  1
  C  C10  1  0.50000000  0.31190360  0.48016654  1
  C  C11  1  0.50000000  0.31309407  0.97765674  1
  C  C12  1  0.50000000  0.30762227  0.22877245  1
  C  C13  1  0.50000000  0.31458713  0.72887200  1
  C  C14  1  0.50000000  0.30869340  0.35495351  1
  C  C15  1  0.50000000  0.31445279  0.85333780  1
  C  C16  1  0.50000000  0.28139067  0.04016684  1
  C  C17  1  0.50000000  0.28343658  0.54392436  1
  C  C18  1  0.50000000  0.28023091  0.41959122  1
  C  C19  1  0.50000000  0.28404666  0.91593581  1
  C  C20  1  0.50000000  0.27845266  0.16635181  1
  C  C21  1  0.50000000  0.28456546  0.66775521  1
  C  C22  1  0.50000000  0.27805193  0.29349498  1
  C  C23  1  0.50000000  0.28465519  0.79199609  1
  C  C24  1  0.50000000  0.34056258  0.08254358  1
  C  C25  1  0.50000000  0.34468094  0.58352009  1
  C  C26  1  0.50000000  0.34202813  0.45881283  1
  C  C27  1  0.50000000  0.34420106  0.95761477  1
  C  C28  1  0.50000000  0.33833125  0.20803311  1
  C  C29  1  0.50000000  0.34518432  0.70818762  1
  C  C30  1  0.50000000  0.33891170  0.33352058  1
  C  C31  1  0.50000000  0.34519017  0.83292245  1
  C  C32  1  0.50000000  0.37076027  0.10424942  1
  C  C33  1  0.50000000  0.37585834  0.60400639  1
  C  C34  1  0.50000000  0.37342428  0.47924276  1
  C  C35  1  0.50000000  0.37480477  0.97910156  1
  C  C36  1  0.50000000  0.36892668  0.22928297  1
  C  C37  1  0.50000000  0.37592148  0.72910064  1
  C  C38  1  0.50000000  0.36991905  0.35410802  1
  C  C39  1  0.50000000  0.37589604  0.85405593  1
  C  C40  1  0.50000000  0.31189924  0.01940697  1
  C  C41  1  0.50000000  0.31307556  0.52191423  1
  C  C42  1  0.50000000  0.30960854  0.39694845  1
  C  C43  1  0.50000000  0.31428807  0.89507472  1
  C  C44  1  0.50000000  0.30857345  0.14475472  1
  C  C45  1  0.50000000  0.31441960  0.64618428  1
  C  C46  1  0.50000000  0.30764902  0.27095137  1
  C  C47  1  0.50000000  0.31458815  0.77064857  1
  C  C48  1  0.50000000  0.34197799  0.04084591  1
  C  C49  1  0.50000000  0.34419672  0.54197203  1
  C  C50  1  0.50000000  0.34065099  0.41712571  1
  C  C51  1  0.50000000  0.34467697  0.91606417  1
  C  C52  1  0.50000000  0.33881650  0.16619223  1
  C  C53  1  0.50000000  0.34515233  0.66662000  1
  C  C54  1  0.50000000  0.33836873  0.29168885  1
  C  C55  1  0.50000000  0.34516423  0.79137310  1
  C  C56  1  0.50000000  0.40188075  0.08390375  1
  C  C57  1  0.50000000  0.40638405  0.58304559  1
  C  C58  1  0.50000000  0.40365144  0.45765445  1
  C  C59  1  0.50000000  0.40631564  0.95877153  1
  C  C60  1  0.50000000  0.39975340  0.20866313  1
  C  C61  1  0.50000000  0.40645975  0.70827042  1
  C  C62  1  0.50000000  0.40014870  0.33239112  1
  C  C63  1  0.50000000  0.40642634  0.83301810  1
  C  C64  1  0.50000000  0.43136917  0.10619923  1
  C  C65  1  0.50000000  0.43702481  0.60439060  1
  C  C66  1  0.50000000  0.43515635  0.47763509  1
  C  C67  1  0.50000000  0.43685990  0.97992835  1
  C  C68  1  0.50000000  0.43031455  0.22920521  1
  C  C69  1  0.50000000  0.43704611  0.72915443  1
  C  C70  1  0.50000000  0.43089964  0.35227327  1
  C  C71  1  0.50000000  0.43701564  0.85370821  1
  C  C72  1  0.50000000  0.37336814  0.02043095  1
  C  C73  1  0.50000000  0.37484592  0.52055771  1
  C  C74  1  0.50000000  0.37085233  0.39544887  1
  C  C75  1  0.50000000  0.37583694  0.89560056  1
  C  C76  1  0.50000000  0.36983270  0.14560445  1
  C  C77  1  0.50000000  0.37588114  0.64553971  1
  C  C78  1  0.50000000  0.36894759  0.27043019  1
  C  C79  1  0.50000000  0.37590442  0.77053527  1
  C  C80  1  0.50000000  0.40358001  0.04205194  1
  C  C81  1  0.50000000  0.40638133  0.54089160  1
  C  C82  1  0.50000000  0.40196663  0.41580672  1
  C  C83  1  0.50000000  0.40633249  0.91660722  1
  C  C84  1  0.50000000  0.40008590  0.16731555  1
  C  C85  1  0.50000000  0.40641001  0.66661939  1
  C  C86  1  0.50000000  0.39978605  0.29104989  1
  C  C87  1  0.50000000  0.40643346  0.79139544  1
  C  C88  1  0.50000000  0.46175312  0.08641093  1
  C  C89  1  0.50000000  0.46783444  0.58415989  1
  C  C90  1  0.50000000  0.46326998  0.45259839  1
  C  C91  1  0.50000000  0.46817848  0.95745506  1
  C  C92  1  0.50000000  0.46057738  0.20833121  1
  C  C93  1  0.50000000  0.46777894  0.70850414  1
  C  C94  1  0.50000000  0.46089484  0.33084242  1
  C  C95  1  0.50000000  0.46766639  0.83251245  1
  C  C96  1  0.50000000  0.49848723  0.60580281  1
  C  C97  1  0.50000000  0.49984236  0.97372132  1
  C  C98  1  0.50000000  0.49849464  0.72924820  1
  C  C99  1  0.50000000  0.49843343  0.85263461  1
  C  C100  1  0.50000000  0.43508915  0.02209171  1
  C  C101  1  0.50000000  0.43694283  0.51977998  1
  C  C102  1  0.50000000  0.43145389  0.39351245  1
  C  C103  1  0.50000000  0.43696631  0.89527788  1
  C  C104  1  0.50000000  0.43084153  0.14743987  1
  C  C105  1  0.50000000  0.43703764  0.64596793  1
  C  C106  1  0.50000000  0.43034382  0.27051835  1
  C  C107  1  0.50000000  0.43702762  0.77057357  1
  C  C108  1  0.50000000  0.46320216  0.04713236  1
  C  C109  1  0.50000000  0.46827589  0.54223774  1
  C  C110  1  0.50000000  0.46183617  0.41331750  1
  C  C111  1  0.50000000  0.46775234  0.91554049  1
  C  C112  1  0.50000000  0.46084507  0.16888933  1
  C  C113  1  0.50000000  0.46769645  0.66720636  1
  C  C114  1  0.50000000  0.46061871  0.29140061  1
  C  C115  1  0.50000000  0.46775776  0.79122928  1
  C  C116  1  0.50000000  0.52973519  0.58696224  1
  C  C117  1  0.50000000  0.53006437  0.95365940  1
  C  C118  1  0.50000000  0.52934574  0.70899878  1
  C  C119  1  0.50000000  0.52923925  0.83186289  1
  C  C120  1  0.50000000  0.56044843  0.60721106  1
  C  C121  1  0.50000000  0.56027098  0.97387958  1
  C  C122  1  0.50000000  0.56032944  0.72939477  1
  C  C123  1  0.50000000  0.56030585  0.85178329  1
  C  C124  1  0.50000000  0.49996101  0.52598020  1
  C  C125  1  0.50000000  0.49841356  0.89394907  1
  C  C126  1  0.50000000  0.49849991  0.64712882  1
  C  C127  1  0.50000000  0.49848115  0.77051176  1
  C  C128  1  0.50000000  0.53016702  0.54609182  1
  C  C129  1  0.50000000  0.52965516  0.91279851  1
  C  C130  1  0.50000000  0.52932458  0.66792378  1
  C  C131  1  0.50000000  0.52931845  0.79079256  1
  C  C132  1  0.50000000  0.59110995  0.58677829  1
  C  C133  1  0.50000000  0.59082751  0.95427269  1
  C  C134  1  0.50000000  0.59124695  0.70910940  1
  C  C135  1  0.50000000  0.59129865  0.83191010  1
  C  C136  1  0.50000000  0.62220997  0.60599941  1
  C  C137  1  0.50000000  0.62102130  0.97454484  1
  C  C138  1  0.50000000  0.62202672  0.72942437  1
  C  C139  1  0.50000000  0.62199148  0.85261655  1
  C  C140  1  0.50000000  0.56041527  0.52594042  1
  C  C141  1  0.50000000  0.56037659  0.89258386  1
  C  C142  1  0.50000000  0.56037342  0.64801190  1
  C  C143  1  0.50000000  0.56032286  0.77044386  1
  C  C144  1  0.50000000  0.59096078  0.54558823  1
  C  C145  1  0.50000000  0.59100011  0.91307979  1
  C  C146  1  0.50000000  0.59132870  0.66792815  1
  C  C147  1  0.50000000  0.59123467  0.79073238  1
  C  C148  1  0.50000000  0.66824608  0.08781794  1
  C  C149  1  0.50000000  0.65295256  0.58462773  1
  C  C150  1  0.50000000  0.66308321  0.45146784  1
  C  C151  1  0.50000000  0.65265040  0.95731075  1
  C  C152  1  0.50000000  0.67672990  0.20898476  1
  C  C153  1  0.50000000  0.65297163  0.70886221  1
  C  C154  1  0.50000000  0.67541672  0.33089735  1
  C  C155  1  0.50000000  0.65285012  0.83220441  1
  C  C156  1  0.50000000  0.70020737  0.10404926  1
  C  C157  1  0.50000000  0.68346472  0.60533529  1
  C  C158  1  0.50000000  0.68892906  0.47903526  1
  C  C159  1  0.50000000  0.68404029  0.97845246  1
  C  C160  1  0.50000000  0.70730755  0.22881431  1
  C  C161  1  0.50000000  0.68373375  0.72918078  1
  C  C162  1  0.50000000  0.70429109  0.35387063  1
  C  C163  1  0.50000000  0.68342117  0.85289285  1
  C  C164  1  0.50000000  0.62115923  0.52530438  1
  C  C165  1  0.50000000  0.62209499  0.89387352  1
  C  C166  1  0.50000000  0.62206957  0.64726179  1
  C  C167  1  0.50000000  0.62200994  0.77041983  1
  C  C168  1  0.50000000  0.66268230  0.04850750  1
  C  C169  1  0.50000000  0.65280075  0.54254648  1
  C  C170  1  0.50000000  0.66864900  0.41216857  1
  C  C171  1  0.50000000  0.65281574  0.91525657  1
  C  C172  1  0.50000000  0.67516180  0.16928480  1
  C  C173  1  0.50000000  0.65292722  0.66768997  1
  C  C174  1  0.50000000  0.67685539  0.29118523  1
  C  C175  1  0.50000000  0.65292503  0.79103095  1
  C  C176  1  0.50000000  0.72660607  0.07732465  1
  C  C177  1  0.50000000  0.71328199  0.58409611  1
  C  C178  1  0.50000000  0.72131003  0.46231912  1
  C  C179  1  0.50000000  0.71303973  0.95576427  1
  C  C180  1  0.50000000  0.73632010  0.20597192  1
  C  C181  1  0.50000000  0.71366672  0.70788415  1
  C  C182  1  0.50000000  0.73498422  0.33422550  1
  C  C183  1  0.50000000  0.71344844  0.83182335  1
  C  C184  1  0.50000000  0.68854619  0.02093846  1
  C  C185  1  0.50000000  0.68424637  0.52147470  1
  C  C186  1  0.50000000  0.70062103  0.39598857  1
  C  C187  1  0.50000000  0.68332375  0.89458168  1
  C  C188  1  0.50000000  0.70398173  0.14618580  1
  C  C189  1  0.50000000  0.68351846  0.64702237  1
  C  C190  1  0.50000000  0.70737945  0.27124328  1
  C  C191  1  0.50000000  0.68371296  0.77074388  1
  C  C192  1  0.50000000  0.72088543  0.03771444  1
  C  C193  1  0.50000000  0.71322204  0.54419022  1
  C  C194  1  0.50000000  0.72703373  0.42269904  1
  C  C195  1  0.50000000  0.71310319  0.91586195  1
  C  C196  1  0.50000000  0.73474151  0.16572728  1
  C  C197  1  0.50000000  0.71353161  0.66811765  1
  C  C198  1  0.50000000  0.73646615  0.29398384  1
  C  C199  1  0.50000000  0.71363491  0.79206087  1
  H  H200  1  0.50000000  0.25569123  0.09384495  1
  H  H201  1  0.50000000  0.26027676  0.59890764  1
  H  H202  1  0.50000000  0.25776317  0.47489505  1
  H  H203  1  0.50000000  0.25925733  0.96991971  1
  H  H204  1  0.50000000  0.25373281  0.22060960  1
  H  H205  1  0.50000000  0.26074548  0.72253356  1
  H  H206  1  0.50000000  0.25466845  0.34850540  1
  H  H207  1  0.50000000  0.26056982  0.84648753  1
  H  H208  1  0.50000000  0.25779993  0.02449627  1
  H  H209  1  0.50000000  0.25924366  0.52952877  1
  H  H210  1  0.50000000  0.25580827  0.40562324  1
  H  H211  1  0.50000000  0.26027644  0.90069204  1
  H  H212  1  0.50000000  0.25456226  0.15123445  1
  H  H213  1  0.50000000  0.26056827  0.65298960  1
  H  H214  1  0.50000000  0.25373629  0.27932194  1
  H  H215  1  0.50000000  0.26073878  0.77704547  1
  H  H216  1  0.50000000  0.75242997  0.08736308  1
  H  H217  1  0.50000000  0.73739446  0.59866978  1
  H  H218  1  0.50000000  0.74342064  0.48060445  1
  H  H219  1  0.50000000  0.73737665  0.96965582  1
  H  H220  1  0.50000000  0.76085544  0.21973165  1
  H  H221  1  0.50000000  0.73767957  0.72272127  1
  H  H222  1  0.50000000  0.75833759  0.35049960  1
  H  H223  1  0.50000000  0.73734125  0.84684506  1
  H  H224  1  0.50000000  0.74295403  0.01938382  1
  H  H225  1  0.50000000  0.73753406  0.53023676  1
  H  H226  1  0.50000000  0.75286719  0.41266556  1
  H  H227  1  0.50000000  0.73717696  0.90124302  1
  H  H228  1  0.50000000  0.75808299  0.14940980  1
  H  H229  1  0.50000000  0.73744102  0.65312028  1
  H  H230  1  0.50000000  0.76099149  0.28020977  1
  H  H231  1  0.50000000  0.73766747  0.77724831  1
  H  H232  1  0.50000000  0.48532695  0.10201602  1
  H  H233  1  0.50000000  0.48844193  0.46252382  1
  H  H234  1  0.50000000  0.48437324  0.22345296  1
  H  H235  1  0.50000000  0.48492844  0.34541001  1
  H  H236  1  0.50000000  0.50416495  0.00409438  1
  H  H237  1  0.50000000  0.48835881  0.03716514  1
  H  H238  1  0.50000000  0.48543839  0.39775774  1
  H  H239  1  0.50000000  0.48489959  0.15436685  1
  H  H240  1  0.50000000  0.48443078  0.27631551  1
  H  H241  1  0.50000000  0.55995175  0.00551890  1
  H  H242  1  0.50000000  0.50435740  0.49561532  1
  H  H243  1  0.50000000  0.61785979  0.00539297  1
  H  H244  1  0.50000000  0.56014831  0.49429505  1
  H  H245  1  0.50000000  0.64614182  0.10605298  1
  H  H246  1  0.50000000  0.63707448  0.45915327  1
  H  H247  1  0.50000000  0.65311741  0.22452445  1
  H  H248  1  0.50000000  0.65074573  0.34400926  1
  H  H249  1  0.50000000  0.61791595  0.49444766  1
  H  H250  1  0.50000000  0.63666236  0.04086690  1
  H  H251  1  0.50000000  0.64651934  0.39396795  1
  H  H252  1  0.50000000  0.65044606  0.15625691  1
  H  H253  1  0.50000000  0.65315641  0.27588487  1
