# generated using pymatgen
data_H27C100
_symmetry_space_group_name_H-M   'P 1'
_cell_length_a   20.00000000
_cell_length_b   40.19450000
_cell_length_c   34.67008315
_cell_angle_alpha   90.00000000
_cell_angle_beta   90.00000000
_cell_angle_gamma   90.00000000
_symmetry_Int_Tables_number   1
_chemical_formula_structural   H27C100
_chemical_formula_sum   'H54 C200'
_cell_volume   27870.93314397
_cell_formula_units_Z   2
loop_
 _symmetry_equiv_pos_site_id
 _symmetry_equiv_pos_as_xyz
  1  'x, y, z'
loop_
 _atom_site_type_symbol
 _atom_site_label
 _atom_site_symmetry_multiplicity
 _atom_site_fract_x
 _atom_site_fract_y
 _atom_site_fract_z
 _atom_site_occupancy
  C  C0  1  0.50000000  0.27941008  0.07923026  1
  C  C1  1  0.50000000  0.28541570  0.58362432  1
  C  C2  1  0.50000000  0.28148734  0.46025438  1
  C  C3  1  0.50000000  0.28496135  0.95572698  1
  C  C4  1  0.50000000  0.27564786  0.20598834  1
  C  C5  1  0.50000000  0.28558692  0.70742911  1
  C  C6  1  0.50000000  0.27633593  0.33370298  1
  C  C7  1  0.50000000  0.28567865  0.83215154  1
  C  C8  1  0.50000000  0.30827179  0.10286562  1
  C  C9  1  0.50000000  0.31581932  0.60443576  1
  C  C10  1  0.50000000  0.31248921  0.48029845  1
  C  C11  1  0.50000000  0.31455145  0.97801950  1
  C  C12  1  0.50000000  0.30506782  0.22896063  1
  C  C13  1  0.50000000  0.31546968  0.72901311  1
  C  C14  1  0.50000000  0.30665368  0.35510104  1
  C  C15  1  0.50000000  0.31567002  0.85360989  1
  C  C16  1  0.50000000  0.28155005  0.03957139  1
  C  C17  1  0.50000000  0.28492761  0.54413104  1
  C  C18  1  0.50000000  0.27933520  0.42058629  1
  C  C19  1  0.50000000  0.28543026  0.91623167  1
  C  C20  1  0.50000000  0.27638403  0.16606093  1
  C  C21  1  0.50000000  0.28569077  0.66764639  1
  C  C22  1  0.50000000  0.27561489  0.29377109  1
  C  C23  1  0.50000000  0.28558050  0.79236825  1
  C  C24  1  0.50000000  0.33981354  0.08337789  1
  C  C25  1  0.50000000  0.34618823  0.58342875  1
  C  C26  1  0.50000000  0.34224704  0.45819242  1
  C  C27  1  0.50000000  0.34607319  0.95832631  1
  C  C28  1  0.50000000  0.33602185  0.20843211  1
  C  C29  1  0.50000000  0.34610706  0.70840169  1
  C  C30  1  0.50000000  0.33668907  0.33290473  1
  C  C31  1  0.50000000  0.34619419  0.83284591  1
  C  C32  1  0.50000000  0.36916663  0.10628444  1
  C  C33  1  0.50000000  0.37700857  0.60473818  1
  C  C34  1  0.50000000  0.37418773  0.47786304  1
  C  C35  1  0.50000000  0.37657543  0.98008837  1
  C  C36  1  0.50000000  0.36666763  0.22931510  1
  C  C37  1  0.50000000  0.37687075  0.72927713  1
  C  C38  1  0.50000000  0.36788870  0.35248473  1
  C  C39  1  0.50000000  0.37694759  0.85364614  1
  C  C40  1  0.50000000  0.31252844  0.01948399  1
  C  C41  1  0.50000000  0.31451367  0.52178990  1
  C  C42  1  0.50000000  0.30818446  0.39692858  1
  C  C43  1  0.50000000  0.31581654  0.89538691  1
  C  C44  1  0.50000000  0.30671925  0.14469154  1
  C  C45  1  0.50000000  0.31568673  0.64620178  1
  C  C46  1  0.50000000  0.30505295  0.27080561  1
  C  C47  1  0.50000000  0.31547418  0.77078044  1
  C  C48  1  0.50000000  0.34231367  0.04156928  1
  C  C49  1  0.50000000  0.34604768  0.54148399  1
  C  C50  1  0.50000000  0.33973094  0.41639054  1
  C  C51  1  0.50000000  0.34619729  0.91637560  1
  C  C52  1  0.50000000  0.33674640  0.16687618  1
  C  C53  1  0.50000000  0.34621156  0.66694277  1
  C  C54  1  0.50000000  0.33600063  0.29134123  1
  C  C55  1  0.50000000  0.34610939  0.79139299  1
  C  C56  1  0.50000000  0.39988025  0.08680845  1
  C  C57  1  0.50000000  0.40756465  0.58425043  1
  C  C58  1  0.50000000  0.40198461  0.45220928  1
  C  C59  1  0.50000000  0.40797594  0.95763291  1
  C  C60  1  0.50000000  0.39712569  0.20860661  1
  C  C61  1  0.50000000  0.40748851  0.70862869  1
  C  C62  1  0.50000000  0.39768281  0.33056785  1
  C  C63  1  0.50000000  0.40746396  0.83250224  1
  C  C64  1  0.50000000  0.43811711  0.60586934  1
  C  C65  1  0.50000000  0.43955340  0.97387958  1
  C  C66  1  0.50000000  0.43817240  0.72931850  1
  C  C67  1  0.50000000  0.43815974  0.85262467  1
  C  C68  1  0.50000000  0.37425063  0.02189841  1
  C  C69  1  0.50000000  0.37653702  0.51969079  1
  C  C70  1  0.50000000  0.36909006  0.39348656  1
  C  C71  1  0.50000000  0.37701104  0.89503961  1
  C  C72  1  0.50000000  0.36795782  0.14730950  1
  C  C73  1  0.50000000  0.37696118  0.64613520  1
  C  C74  1  0.50000000  0.36665738  0.27044641  1
  C  C75  1  0.50000000  0.37686614  0.77049896  1
  C  C76  1  0.50000000  0.40205716  0.04756302  1
  C  C77  1  0.50000000  0.40796109  0.54211469  1
  C  C78  1  0.50000000  0.39978820  0.41297385  1
  C  C79  1  0.50000000  0.40757384  0.91549873  1
  C  C80  1  0.50000000  0.39774533  0.16923500  1
  C  C81  1  0.50000000  0.40748001  0.66726092  1
  C  C82  1  0.50000000  0.39709425  0.29119606  1
  C  C83  1  0.50000000  0.40748462  0.79113646  1
  C  C84  1  0.50000000  0.46943529  0.58699382  1
  C  C85  1  0.50000000  0.46977901  0.95357964  1
  C  C86  1  0.50000000  0.46908849  0.70898505  1
  C  C87  1  0.50000000  0.46902345  0.83175539  1
  C  C88  1  0.50000000  0.50000652  0.60734437  1
  C  C89  1  0.50000000  0.50002260  0.97355963  1
  C  C90  1  0.50000000  0.50000800  0.72929879  1
  C  C91  1  0.50000000  0.49999870  0.85155400  1
  C  C92  1  0.50000000  0.43953864  0.52584786  1
  C  C93  1  0.50000000  0.43812252  0.89386697  1
  C  C94  1  0.50000000  0.43816514  0.64711462  1
  C  C95  1  0.50000000  0.43816594  0.77043731  1
  C  C96  1  0.50000000  0.46977558  0.54613448  1
  C  C97  1  0.50000000  0.46944192  0.91272633  1
  C  C98  1  0.50000000  0.46902993  0.66797778  1
  C  C99  1  0.50000000  0.46908353  0.79075623  1
  C  C100  1  0.50000000  0.53057846  0.58698558  1
  C  C101  1  0.50000000  0.53023315  0.95356989  1
  C  C102  1  0.50000000  0.53092070  0.70898212  1
  C  C103  1  0.50000000  0.53097273  0.83175087  1
  C  C104  1  0.50000000  0.56189587  0.60585557  1
  C  C105  1  0.50000000  0.56045835  0.97386469  1
  C  C106  1  0.50000000  0.56182842  0.72931784  1
  C  C107  1  0.50000000  0.56183743  0.85262095  1
  C  C108  1  0.50000000  0.50001219  0.52615449  1
  C  C109  1  0.50000000  0.50000330  0.89236606  1
  C  C110  1  0.50000000  0.50000614  0.64816506  1
  C  C111  1  0.50000000  0.49999879  0.77043781  1
  C  C112  1  0.50000000  0.53024956  0.54612840  1
  C  C113  1  0.50000000  0.53056828  0.91271969  1
  C  C114  1  0.50000000  0.53098033  0.66796895  1
  C  C115  1  0.50000000  0.53091129  0.79075264  1
  C  C116  1  0.50000000  0.60011966  0.08678855  1
  C  C117  1  0.50000000  0.59244955  0.58424017  1
  C  C118  1  0.50000000  0.59805215  0.45220610  1
  C  C119  1  0.50000000  0.59203671  0.95762158  1
  C  C120  1  0.50000000  0.60288807  0.20860240  1
  C  C121  1  0.50000000  0.59251224  0.70863290  1
  C  C122  1  0.50000000  0.60234978  0.33056263  1
  C  C123  1  0.50000000  0.59253025  0.83249608  1
  C  C124  1  0.50000000  0.63082708  0.10627181  1
  C  C125  1  0.50000000  0.62299875  0.60474282  1
  C  C126  1  0.50000000  0.62584687  0.47786187  1
  C  C127  1  0.50000000  0.62343584  0.98007493  1
  C  C128  1  0.50000000  0.63334489  0.22931946  1
  C  C129  1  0.50000000  0.62313247  0.72927935  1
  C  C130  1  0.50000000  0.63214211  0.35246976  1
  C  C131  1  0.50000000  0.62305207  0.85363329  1
  C  C132  1  0.50000000  0.56048674  0.52583759  1
  C  C133  1  0.50000000  0.56188530  0.89386127  1
  C  C134  1  0.50000000  0.56184197  0.64710185  1
  C  C135  1  0.50000000  0.56182987  0.77043571  1
  C  C136  1  0.50000000  0.59794115  0.04754191  1
  C  C137  1  0.50000000  0.59206485  0.54210518  1
  C  C138  1  0.50000000  0.60025477  0.41297145  1
  C  C139  1  0.50000000  0.59243624  0.91548899  1
  C  C140  1  0.50000000  0.60226300  0.16923489  1
  C  C141  1  0.50000000  0.59252423  0.66725998  1
  C  C142  1  0.50000000  0.60293231  0.29119898  1
  C  C143  1  0.50000000  0.59251354  0.79113528  1
  C  C144  1  0.50000000  0.66018023  0.08337098  1
  C  C145  1  0.50000000  0.65382013  0.58343992  1
  C  C146  1  0.50000000  0.65777846  0.45818193  1
  C  C147  1  0.50000000  0.65393808  0.95831467  1
  C  C148  1  0.50000000  0.66398255  0.20841760  1
  C  C149  1  0.50000000  0.65389265  0.70840299  1
  C  C150  1  0.50000000  0.66334868  0.33290246  1
  C  C151  1  0.50000000  0.65380714  0.83283657  1
  C  C152  1  0.50000000  0.69172417  0.10284787  1
  C  C153  1  0.50000000  0.68418635  0.60444524  1
  C  C154  1  0.50000000  0.68752835  0.48030914  1
  C  C155  1  0.50000000  0.68545606  0.97802234  1
  C  C156  1  0.50000000  0.69494535  0.22893835  1
  C  C157  1  0.50000000  0.68452660  0.72900719  1
  C  C158  1  0.50000000  0.69338928  0.35508881  1
  C  C159  1  0.50000000  0.68433539  0.85359514  1
  C  C160  1  0.50000000  0.62575185  0.02188377  1
  C  C161  1  0.50000000  0.62350825  0.51968520  1
  C  C162  1  0.50000000  0.63095060  0.39348419  1
  C  C163  1  0.50000000  0.62300120  0.89502695  1
  C  C164  1  0.50000000  0.63204202  0.14729627  1
  C  C165  1  0.50000000  0.62304656  0.64613530  1
  C  C166  1  0.50000000  0.63337149  0.27045042  1
  C  C167  1  0.50000000  0.62312985  0.77049313  1
  C  C168  1  0.50000000  0.65768262  0.04156749  1
  C  C169  1  0.50000000  0.65396579  0.54149439  1
  C  C170  1  0.50000000  0.66030904  0.41638111  1
  C  C171  1  0.50000000  0.65381580  0.91635613  1
  C  C172  1  0.50000000  0.66325436  0.16686010  1
  C  C173  1  0.50000000  0.65379360  0.66695126  1
  C  C174  1  0.50000000  0.66403231  0.29133594  1
  C  C175  1  0.50000000  0.65388925  0.79137935  1
  C  C176  1  0.50000000  0.72058731  0.07921956  1
  C  C177  1  0.50000000  0.71458848  0.58363639  1
  C  C178  1  0.50000000  0.71853035  0.46026308  1
  C  C179  1  0.50000000  0.71504870  0.95572605  1
  C  C180  1  0.50000000  0.72436559  0.20596503  1
  C  C181  1  0.50000000  0.71441366  0.70743108  1
  C  C182  1  0.50000000  0.72370690  0.33368886  1
  C  C183  1  0.50000000  0.71432306  0.83213044  1
  C  C184  1  0.50000000  0.68746836  0.01948535  1
  C  C185  1  0.50000000  0.68546642  0.52179619  1
  C  C186  1  0.50000000  0.69185912  0.39692202  1
  C  C187  1  0.50000000  0.68419592  0.89537105  1
  C  C188  1  0.50000000  0.69327820  0.14467054  1
  C  C189  1  0.50000000  0.68432203  0.64621220  1
  C  C190  1  0.50000000  0.69497445  0.27078706  1
  C  C191  1  0.50000000  0.68452484  0.77076853  1
  C  C192  1  0.50000000  0.71845208  0.03956453  1
  C  C193  1  0.50000000  0.71506643  0.54413177  1
  C  C194  1  0.50000000  0.72070192  0.42060034  1
  C  C195  1  0.50000000  0.71458347  0.91622076  1
  C  C196  1  0.50000000  0.72361406  0.16603837  1
  C  C197  1  0.50000000  0.71431592  0.66765412  1
  C  C198  1  0.50000000  0.72441077  0.29375316  1
  C  C199  1  0.50000000  0.71441427  0.79234990  1
  H  H200  1  0.50000000  0.25465045  0.09232076  1
  H  H201  1  0.50000000  0.26165065  0.59890122  1
  H  H202  1  0.50000000  0.25820865  0.47653941  1
  H  H203  1  0.50000000  0.26082034  0.97011354  1
  H  H204  1  0.50000000  0.25130054  0.22012192  1
  H  H205  1  0.50000000  0.26158564  0.72226270  1
  H  H206  1  0.50000000  0.25245146  0.34889910  1
  H  H207  1  0.50000000  0.26171684  0.84703709  1
  H  H208  1  0.50000000  0.25823780  0.02334527  1
  H  H209  1  0.50000000  0.26074849  0.52981084  1
  H  H210  1  0.50000000  0.25459374  0.40745068  1
  H  H211  1  0.50000000  0.26164940  0.90099459  1
  H  H212  1  0.50000000  0.25252230  0.15082118  1
  H  H213  1  0.50000000  0.26173593  0.65275124  1
  H  H214  1  0.50000000  0.25123609  0.27969890  1
  H  H215  1  0.50000000  0.26157156  0.77754260  1
  H  H216  1  0.50000000  0.74534148  0.09232312  1
  H  H217  1  0.50000000  0.73835743  0.59888948  1
  H  H218  1  0.50000000  0.74180434  0.47656077  1
  H  H219  1  0.50000000  0.73920143  0.97008930  1
  H  H220  1  0.50000000  0.74871709  0.22010048  1
  H  H221  1  0.50000000  0.73840759  0.72226725  1
  H  H222  1  0.50000000  0.74759291  0.34888861  1
  H  H223  1  0.50000000  0.73828771  0.84701150  1
  H  H224  1  0.50000000  0.74176783  0.02334716  1
  H  H225  1  0.50000000  0.73924453  0.52981586  1
  H  H226  1  0.50000000  0.74544505  0.40747058  1
  H  H227  1  0.50000000  0.73835368  0.90096685  1
  H  H228  1  0.50000000  0.74747163  0.15079896  1
  H  H229  1  0.50000000  0.73827231  0.65276229  1
  H  H230  1  0.50000000  0.74878474  0.27967851  1
  H  H231  1  0.50000000  0.73842043  0.77751926  1
  H  H232  1  0.50000000  0.42327656  0.10277505  1
  H  H233  1  0.50000000  0.42733664  0.46180221  1
  H  H234  1  0.50000000  0.42088904  0.22382599  1
  H  H235  1  0.50000000  0.42183625  0.34488074  1
  H  H236  1  0.50000000  0.44395222  0.00433177  1
  H  H237  1  0.50000000  0.42740465  0.03793593  1
  H  H238  1  0.50000000  0.42314995  0.39694656  1
  H  H239  1  0.50000000  0.42190376  0.15492722  1
  H  H240  1  0.50000000  0.42086656  0.27599830  1
  H  H241  1  0.50000000  0.50000499  0.00519510  1
  H  H242  1  0.50000000  0.44393327  0.49539211  1
  H  H243  1  0.50000000  0.55604893  0.00431024  1
  H  H244  1  0.50000000  0.50000718  0.49450206  1
  H  H245  1  0.50000000  0.57672743  0.10275497  1
  H  H246  1  0.50000000  0.57270114  0.46180510  1
  H  H247  1  0.50000000  0.57912888  0.22383441  1
  H  H248  1  0.50000000  0.57819632  0.34487899  1
  H  H249  1  0.50000000  0.55609367  0.49538345  1
  H  H250  1  0.50000000  0.57259255  0.03792346  1
  H  H251  1  0.50000000  0.57690667  0.39693425  1
  H  H252  1  0.50000000  0.57809973  0.15493579  1
  H  H253  1  0.50000000  0.57915894  0.27600020  1
