# generated using pymatgen
data_H9C50
_symmetry_space_group_name_H-M   'P 1'
_cell_length_a   20.00000000
_cell_length_b   40.19450000
_cell_length_c   34.46938424
_cell_angle_alpha   90.00000000
_cell_angle_beta   90.00000000
_cell_angle_gamma   90.00000000
_symmetry_Int_Tables_number   1
_chemical_formula_structural   H9C50
_chemical_formula_sum   'H36 C200'
_cell_volume   27709.59329528
_cell_formula_units_Z   4
loop_
 _symmetry_equiv_pos_site_id
 _symmetry_equiv_pos_as_xyz
  1  'x, y, z'
loop_
 _atom_site_type_symbol
 _atom_site_label
 _atom_site_symmetry_multiplicity
 _atom_site_fract_x
 _atom_site_fract_y
 _atom_site_fract_z
 _atom_site_occupancy
  C  C0  1  0.50000000  0.28361729  0.58786340  1
  C  C1  1  0.50000000  0.28203580  0.95176183  1
  C  C2  1  0.50000000  0.28597341  0.70869846  1
  C  C3  1  0.50000000  0.28576847  0.83076209  1
  C  C4  1  0.50000000  0.31478847  0.60605054  1
  C  C5  1  0.50000000  0.31118715  0.97319658  1
  C  C6  1  0.50000000  0.31623941  0.72919446  1
  C  C7  1  0.50000000  0.31565635  0.85217556  1
  C  C8  1  0.50000000  0.28204081  0.54809374  1
  C  C9  1  0.50000000  0.28361910  0.91200323  1
  C  C10  1  0.50000000  0.28577693  0.66904269  1
  C  C11  1  0.50000000  0.28598687  0.79110495  1
  C  C12  1  0.50000000  0.34866774  0.08542583  1
  C  C13  1  0.50000000  0.34510317  0.58417338  1
  C  C14  1  0.50000000  0.34804573  0.45389066  1
  C  C15  1  0.50000000  0.34377208  0.95745790  1
  C  C16  1  0.50000000  0.34846005  0.20801002  1
  C  C17  1  0.50000000  0.34674709  0.70866414  1
  C  C18  1  0.50000000  0.34842865  0.33151876  1
  C  C19  1  0.50000000  0.34648394  0.83256038  1
  C  C20  1  0.50000000  0.37878665  0.10575436  1
  C  C21  1  0.50000000  0.37642455  0.60436351  1
  C  C22  1  0.50000000  0.37657646  0.47820126  1
  C  C23  1  0.50000000  0.37519982  0.97966965  1
  C  C24  1  0.50000000  0.37867239  0.22915914  1
  C  C25  1  0.50000000  0.37756004  0.72929813  1
  C  C26  1  0.50000000  0.37864694  0.35272121  1
  C  C27  1  0.50000000  0.37702783  0.85403744  1
  C  C28  1  0.50000000  0.31121678  0.52671351  1
  C  C29  1  0.50000000  0.31478429  0.89381533  1
  C  C30  1  0.50000000  0.31567764  0.64769228  1
  C  C31  1  0.50000000  0.31625889  0.77064592  1
  C  C32  1  0.50000000  0.34810192  0.04598426  1
  C  C33  1  0.50000000  0.34378398  0.54246470  1
  C  C34  1  0.50000000  0.34861981  0.41443954  1
  C  C35  1  0.50000000  0.34509442  0.91573013  1
  C  C36  1  0.50000000  0.34848772  0.16829818  1
  C  C37  1  0.50000000  0.34649096  0.66733173  1
  C  C38  1  0.50000000  0.34845580  0.29181673  1
  C  C39  1  0.50000000  0.34674968  0.79122224  1
  C  C40  1  0.50000000  0.40865835  0.08387849  1
  C  C41  1  0.50000000  0.40687127  0.58307048  1
  C  C42  1  0.50000000  0.40776889  0.45788168  1
  C  C43  1  0.50000000  0.40617286  0.95892212  1
  C  C44  1  0.50000000  0.40934823  0.20871060  1
  C  C45  1  0.50000000  0.40798144  0.70832156  1
  C  C46  1  0.50000000  0.40929011  0.33258356  1
  C  C47  1  0.50000000  0.40772089  0.83342079  1
  C  C48  1  0.50000000  0.43955206  0.10449220  1
  C  C49  1  0.50000000  0.43776586  0.60381205  1
  C  C50  1  0.50000000  0.43833130  0.47900285  1
  C  C51  1  0.50000000  0.43759985  0.97947037  1
  C  C52  1  0.50000000  0.44014680  0.22934361  1
  C  C53  1  0.50000000  0.43853979  0.72916412  1
  C  C54  1  0.50000000  0.43977236  0.35398360  1
  C  C55  1  0.50000000  0.43818984  0.85450543  1
  C  C56  1  0.50000000  0.37663930  0.02170344  1
  C  C57  1  0.50000000  0.37518013  0.52023861  1
  C  C58  1  0.50000000  0.37873600  0.39411858  1
  C  C59  1  0.50000000  0.37643133  0.89557045  1
  C  C60  1  0.50000000  0.37872482  0.14713135  1
  C  C61  1  0.50000000  0.37703582  0.64588762  1
  C  C62  1  0.50000000  0.37866528  0.27068162  1
  C  C63  1  0.50000000  0.37756595  0.77061982  1
  C  C64  1  0.50000000  0.40782486  0.04203382  1
  C  C65  1  0.50000000  0.40614429  0.54100507  1
  C  C66  1  0.50000000  0.40860323  0.41604179  1
  C  C67  1  0.50000000  0.40688537  0.91686963  1
  C  C68  1  0.50000000  0.40934985  0.16729196  1
  C  C69  1  0.50000000  0.40772199  0.66652274  1
  C  C70  1  0.50000000  0.40932565  0.29116660  1
  C  C71  1  0.50000000  0.40798411  0.79161697  1
  C  C72  1  0.50000000  0.47000214  0.08331297  1
  C  C73  1  0.50000000  0.46872469  0.58310501  1
  C  C74  1  0.50000000  0.46934236  0.45823151  1
  C  C75  1  0.50000000  0.46854139  0.95844978  1
  C  C76  1  0.50000000  0.47073031  0.20831013  1
  C  C77  1  0.50000000  0.46921253  0.70815525  1
  C  C78  1  0.50000000  0.47054178  0.33324183  1
  C  C79  1  0.50000000  0.46902382  0.83346797  1
  C  C80  1  0.50000000  0.50076549  0.10401525  1
  C  C81  1  0.50000000  0.49943975  0.60402573  1
  C  C82  1  0.50000000  0.49980009  0.47922542  1
  C  C83  1  0.50000000  0.49949114  0.97902952  1
  C  C84  1  0.50000000  0.50129263  0.22912533  1
  C  C85  1  0.50000000  0.49982508  0.72907877  1
  C  C86  1  0.50000000  0.50098127  0.35419420  1
  C  C87  1  0.50000000  0.49966366  0.85422250  1
  C  C88  1  0.50000000  0.43838617  0.02092658  1
  C  C89  1  0.50000000  0.43756484  0.52046639  1
  C  C90  1  0.50000000  0.43948165  0.39542346  1
  C  C91  1  0.50000000  0.43778021  0.89613627  1
  C  C92  1  0.50000000  0.43983997  0.14592216  1
  C  C93  1  0.50000000  0.43818352  0.64544235  1
  C  C94  1  0.50000000  0.44013379  0.27055604  1
  C  C95  1  0.50000000  0.43854807  0.77078875  1
  C  C96  1  0.50000000  0.46940744  0.04169952  1
  C  C97  1  0.50000000  0.46850593  0.54150780  1
  C  C98  1  0.50000000  0.46992342  0.41661030  1
  C  C99  1  0.50000000  0.46874132  0.91685332  1
  C  C100  1  0.50000000  0.47059806  0.16668157  1
  C  C101  1  0.50000000  0.46901008  0.66649905  1
  C  C102  1  0.50000000  0.47070081  0.29161931  1
  C  C103  1  0.50000000  0.46921775  0.79180820  1
  C  C104  1  0.50000000  0.53120410  0.08293898  1
  C  C105  1  0.50000000  0.53025196  0.58336381  1
  C  C106  1  0.50000000  0.53063592  0.45848948  1
  C  C107  1  0.50000000  0.53021035  0.95803771  1
  C  C108  1  0.50000000  0.53189038  0.20815735  1
  C  C109  1  0.50000000  0.53048970  0.70822036  1
  C  C110  1  0.50000000  0.53169151  0.33334040  1
  C  C111  1  0.50000000  0.53039881  0.83327767  1
  C  C112  1  0.50000000  0.56217345  0.10383525  1
  C  C113  1  0.50000000  0.56115738  0.60432470  1
  C  C114  1  0.50000000  0.56120358  0.47966815  1
  C  C115  1  0.50000000  0.56119385  0.97878144  1
  C  C116  1  0.50000000  0.56267433  0.22912883  1
  C  C117  1  0.50000000  0.56131476  0.72915716  1
  C  C118  1  0.50000000  0.56237871  0.35444551  1
  C  C119  1  0.50000000  0.56124962  0.85409184  1
  C  C120  1  0.50000000  0.49986206  0.02071114  1
  C  C121  1  0.50000000  0.49943718  0.52090724  1
  C  C122  1  0.50000000  0.50067729  0.39591448  1
  C  C123  1  0.50000000  0.49946317  0.89596217  1
  C  C124  1  0.50000000  0.50104791  0.14574317  1
  C  C125  1  0.50000000  0.49963389  0.64574021  1
  C  C126  1  0.50000000  0.50127601  0.27083305  1
  C  C127  1  0.50000000  0.49983005  0.77087844  1
  C  C128  1  0.50000000  0.53070572  0.04143686  1
  C  C129  1  0.50000000  0.53014479  0.54192924  1
  C  C130  1  0.50000000  0.53110250  0.41701334  1
  C  C131  1  0.50000000  0.53029554  0.91659593  1
  C  C132  1  0.50000000  0.53174004  0.16664060  1
  C  C133  1  0.50000000  0.53036848  0.66665287  1
  C  C134  1  0.50000000  0.53186229  0.29182866  1
  C  C135  1  0.50000000  0.53050557  0.79171858  1
  C  C136  1  0.50000000  0.59263637  0.08293035  1
  C  C137  1  0.50000000  0.59188308  0.58371212  1
  C  C138  1  0.50000000  0.59206839  0.45922375  1
  C  C139  1  0.50000000  0.59182721  0.95784609  1
  C  C140  1  0.50000000  0.59326351  0.20829458  1
  C  C141  1  0.50000000  0.59199648  0.70837170  1
  C  C142  1  0.50000000  0.59308662  0.33378536  1
  C  C143  1  0.50000000  0.59197914  0.83330927  1
  C  C144  1  0.50000000  0.62268773  0.10440944  1
  C  C145  1  0.50000000  0.62272963  0.60441634  1
  C  C146  1  0.50000000  0.62160569  0.48071659  1
  C  C147  1  0.50000000  0.62249530  0.97880070  1
  C  C148  1  0.50000000  0.62318259  0.23006059  1
  C  C149  1  0.50000000  0.62269006  0.72921968  1
  C  C150  1  0.50000000  0.62289518  0.35566281  1
  C  C151  1  0.50000000  0.62270332  0.85411684  1
  C  C152  1  0.50000000  0.56129424  0.02030179  1
  C  C153  1  0.50000000  0.56111278  0.52117967  1
  C  C154  1  0.50000000  0.56206105  0.39619325  1
  C  C155  1  0.50000000  0.56119912  0.89561605  1
  C  C156  1  0.50000000  0.56245433  0.14558276  1
  C  C157  1  0.50000000  0.56122498  0.64584883  1
  C  C158  1  0.50000000  0.56265823  0.27089055  1
  C  C159  1  0.50000000  0.56132153  0.77076893  1
  C  C160  1  0.50000000  0.59216994  0.04078228  1
  C  C161  1  0.50000000  0.59175674  0.54209931  1
  C  C162  1  0.50000000  0.59251565  0.41709439  1
  C  C163  1  0.50000000  0.59193084  0.91621790  1
  C  C164  1  0.50000000  0.59315036  0.16627841  1
  C  C165  1  0.50000000  0.59196369  0.66660402  1
  C  C166  1  0.50000000  0.59322153  0.29177201  1
  C  C167  1  0.50000000  0.59200015  0.79153731  1
  C  C168  1  0.50000000  0.65374367  0.58347987  1
  C  C169  1  0.50000000  0.65401927  0.95780249  1
  C  C170  1  0.50000000  0.65359247  0.70828959  1
  C  C171  1  0.50000000  0.65367231  0.83317759  1
  C  C172  1  0.50000000  0.68460685  0.60408371  1
  C  C173  1  0.50000000  0.68470004  0.97736657  1
  C  C174  1  0.50000000  0.68423851  0.72896795  1
  C  C175  1  0.50000000  0.68435940  0.85365390  1
  C  C176  1  0.50000000  0.62169796  0.01924395  1
  C  C177  1  0.50000000  0.62242383  0.52115774  1
  C  C178  1  0.50000000  0.62257662  0.39566827  1
  C  C179  1  0.50000000  0.62276484  0.89547111  1
  C  C180  1  0.50000000  0.62297233  0.14443119  1
  C  C181  1  0.50000000  0.62268351  0.64577724  1
  C  C182  1  0.50000000  0.62316070  0.27006437  1
  C  C183  1  0.50000000  0.62269003  0.77067466  1
  C  C184  1  0.50000000  0.65395854  0.54205802  1
  C  C185  1  0.50000000  0.65379084  0.91636716  1
  C  C186  1  0.50000000  0.65366602  0.66669216  1
  C  C187  1  0.50000000  0.65359652  0.79158962  1
  C  C188  1  0.50000000  0.71462489  0.58294631  1
  C  C189  1  0.50000000  0.71470224  0.95713071  1
  C  C190  1  0.50000000  0.71422890  0.70761730  1
  C  C191  1  0.50000000  0.71427763  0.83220288  1
  C  C192  1  0.50000000  0.68459706  0.52239744  1
  C  C193  1  0.50000000  0.68463987  0.89574562  1
  C  C194  1  0.50000000  0.68434950  0.64618555  1
  C  C195  1  0.50000000  0.68424547  0.77091700  1
  C  C196  1  0.50000000  0.71459773  0.54261347  1
  C  C197  1  0.50000000  0.71468797  0.91679982  1
  C  C198  1  0.50000000  0.71425396  0.66766916  1
  C  C199  1  0.50000000  0.71425176  0.79225181  1
  H  H200  1  0.50000000  0.26065174  0.60455436  1
  H  H201  1  0.50000000  0.25808056  0.96691920  1
  H  H202  1  0.50000000  0.26213593  0.72382339  1
  H  H203  1  0.50000000  0.26164330  0.84513051  1
  H  H204  1  0.50000000  0.25813266  0.53281421  1
  H  H205  1  0.50000000  0.26062284  0.89536860  1
  H  H206  1  0.50000000  0.26171105  0.65453067  1
  H  H207  1  0.50000000  0.26220174  0.77586878  1
  H  H208  1  0.50000000  0.73855612  0.59795926  1
  H  H209  1  0.50000000  0.73830031  0.97307002  1
  H  H210  1  0.50000000  0.73819990  0.72255265  1
  H  H211  1  0.50000000  0.73821904  0.84721351  1
  H  H212  1  0.50000000  0.73819610  0.52667785  1
  H  H213  1  0.50000000  0.73855055  0.90161472  1
  H  H214  1  0.50000000  0.73824543  0.65278631  1
  H  H215  1  0.50000000  0.73820381  0.77726394  1
  H  H216  1  0.50000000  0.30563204  0.00352220  1
  H  H217  1  0.50000000  0.32473306  0.10038363  1
  H  H218  1  0.50000000  0.32327484  0.46481170  1
  H  H219  1  0.50000000  0.32459749  0.22318947  1
  H  H220  1  0.50000000  0.32446062  0.34639279  1
  H  H221  1  0.50000000  0.30571890  0.49640292  1
  H  H222  1  0.50000000  0.32336614  0.03495235  1
  H  H223  1  0.50000000  0.32469450  0.39945837  1
  H  H224  1  0.50000000  0.32460757  0.15322538  1
  H  H225  1  0.50000000  0.32455986  0.27674578  1
  H  H226  1  0.50000000  0.64669943  0.08951522  1
  H  H227  1  0.50000000  0.64506090  0.46496084  1
  H  H228  1  0.50000000  0.64721337  0.21522539  1
  H  H229  1  0.50000000  0.64698927  0.34095684  1
  H  H230  1  0.50000000  0.68562527  0.00904491  1
  H  H231  1  0.50000000  0.64521207  0.03487942  1
  H  H232  1  0.50000000  0.64656322  0.41061081  1
  H  H233  1  0.50000000  0.64701617  0.15926265  1
  H  H234  1  0.50000000  0.64715531  0.28498548  1
  H  H235  1  0.50000000  0.68551435  0.49070153  1
