# generated using pymatgen
data_H9C50
_symmetry_space_group_name_H-M   'P 1'
_cell_length_a   20.00000000
_cell_length_b   40.19450000
_cell_length_c   34.48630430
_cell_angle_alpha   90.00000000
_cell_angle_beta   90.00000000
_cell_angle_gamma   90.00000000
_symmetry_Int_Tables_number   1
_chemical_formula_structural   H9C50
_chemical_formula_sum   'H36 C200'
_cell_volume   27723.19516213
_cell_formula_units_Z   4
loop_
 _symmetry_equiv_pos_site_id
 _symmetry_equiv_pos_as_xyz
  1  'x, y, z'
loop_
 _atom_site_type_symbol
 _atom_site_label
 _atom_site_symmetry_multiplicity
 _atom_site_fract_x
 _atom_site_fract_y
 _atom_site_fract_z
 _atom_site_occupancy
  C  C0  1  0.50000000  0.28601464  0.58308802  1
  C  C1  1  0.50000000  0.28589374  0.95659418  1
  C  C2  1  0.50000000  0.28676900  0.70772922  1
  C  C3  1  0.50000000  0.28667988  0.83207406  1
  C  C4  1  0.50000000  0.31489205  0.10392522  1
  C  C5  1  0.50000000  0.31635525  0.60460656  1
  C  C6  1  0.50000000  0.31610232  0.48127031  1
  C  C7  1  0.50000000  0.31622453  0.97797835  1
  C  C8  1  0.50000000  0.31409101  0.22994511  1
  C  C9  1  0.50000000  0.31688290  0.72915061  1
  C  C10  1  0.50000000  0.31445358  0.35593457  1
  C  C11  1  0.50000000  0.31669260  0.85371631  1
  C  C12  1  0.50000000  0.28583484  0.54334870  1
  C  C13  1  0.50000000  0.28604880  0.91685034  1
  C  C14  1  0.50000000  0.28664420  0.66795533  1
  C  C15  1  0.50000000  0.28677711  0.79226919  1
  C  C16  1  0.50000000  0.34496449  0.08258369  1
  C  C17  1  0.50000000  0.34708739  0.58404716  1
  C  C18  1  0.50000000  0.34543100  0.45955967  1
  C  C19  1  0.50000000  0.34709443  0.95734641  1
  C  C20  1  0.50000000  0.34398356  0.20814143  1
  C  C21  1  0.50000000  0.34751818  0.70842091  1
  C  C22  1  0.50000000  0.34417540  0.33394334  1
  C  C23  1  0.50000000  0.34749753  0.83311924  1
  C  C24  1  0.50000000  0.37535974  0.10356627  1
  C  C25  1  0.50000000  0.37809317  0.60461087  1
  C  C26  1  0.50000000  0.37665194  0.47989327  1
  C  C27  1  0.50000000  0.37744179  0.97859509  1
  C  C28  1  0.50000000  0.37453238  0.22901647  1
  C  C29  1  0.50000000  0.37839231  0.72925827  1
  C  C30  1  0.50000000  0.37491199  0.35460879  1
  C  C31  1  0.50000000  0.37830707  0.85397468  1
  C  C32  1  0.50000000  0.31616525  0.01866749  1
  C  C33  1  0.50000000  0.31615957  0.52195372  1
  C  C34  1  0.50000000  0.31484769  0.39598878  1
  C  C35  1  0.50000000  0.31641388  0.89535797  1
  C  C36  1  0.50000000  0.31448485  0.14399035  1
  C  C37  1  0.50000000  0.31662050  0.64624496  1
  C  C38  1  0.50000000  0.31410611  0.26999835  1
  C  C39  1  0.50000000  0.31688249  0.77082524  1
  C  C40  1  0.50000000  0.34549508  0.04036400  1
  C  C41  1  0.50000000  0.34703285  0.54257673  1
  C  C42  1  0.50000000  0.34490924  0.41734626  1
  C  C43  1  0.50000000  0.34714650  0.91588182  1
  C  C44  1  0.50000000  0.34420629  0.16599866  1
  C  C45  1  0.50000000  0.34744489  0.66681907  1
  C  C46  1  0.50000000  0.34400088  0.29177837  1
  C  C47  1  0.50000000  0.34752538  0.79150713  1
  C  C48  1  0.50000000  0.40646337  0.08276812  1
  C  C49  1  0.50000000  0.40872058  0.58344425  1
  C  C50  1  0.50000000  0.40712242  0.45864297  1
  C  C51  1  0.50000000  0.40849851  0.95798173  1
  C  C52  1  0.50000000  0.40534942  0.20805003  1
  C  C53  1  0.50000000  0.40911573  0.70834632  1
  C  C54  1  0.50000000  0.40553111  0.33338078  1
  C  C55  1  0.50000000  0.40915003  0.83320662  1
  C  C56  1  0.50000000  0.43676405  0.10392030  1
  C  C57  1  0.50000000  0.43962810  0.60405612  1
  C  C58  1  0.50000000  0.43809371  0.47923353  1
  C  C59  1  0.50000000  0.43897552  0.97898305  1
  C  C60  1  0.50000000  0.43587328  0.22910777  1
  C  C61  1  0.50000000  0.43979738  0.72910856  1
  C  C62  1  0.50000000  0.43626558  0.35422532  1
  C  C63  1  0.50000000  0.43973391  0.85414160  1
  C  C64  1  0.50000000  0.37670939  0.02001119  1
  C  C65  1  0.50000000  0.37737377  0.52131133  1
  C  C66  1  0.50000000  0.37531069  0.39636125  1
  C  C67  1  0.50000000  0.37814716  0.89530013  1
  C  C68  1  0.50000000  0.37494172  0.14532036  1
  C  C69  1  0.50000000  0.37824795  0.64593980  1
  C  C70  1  0.50000000  0.37454054  0.27085966  1
  C  C71  1  0.50000000  0.37840241  0.77066458  1
  C  C72  1  0.50000000  0.40718017  0.04126417  1
  C  C73  1  0.50000000  0.40842467  0.54191563  1
  C  C74  1  0.50000000  0.40640204  0.41714742  1
  C  C75  1  0.50000000  0.40878124  0.91645076  1
  C  C76  1  0.50000000  0.40556229  0.16653678  1
  C  C77  1  0.50000000  0.40910514  0.66668341  1
  C  C78  1  0.50000000  0.40533021  0.29186343  1
  C  C79  1  0.50000000  0.40913853  0.79154497  1
  C  C80  1  0.50000000  0.46762651  0.08329791  1
  C  C81  1  0.50000000  0.47024277  0.58301707  1
  C  C82  1  0.50000000  0.46845619  0.45815817  1
  C  C83  1  0.50000000  0.47005809  0.95840445  1
  C  C84  1  0.50000000  0.46645362  0.20831900  1
  C  C85  1  0.50000000  0.47049289  0.70811514  1
  C  C86  1  0.50000000  0.46663663  0.33318416  1
  C  C87  1  0.50000000  0.47055750  0.83336944  1
  C  C88  1  0.50000000  0.49792639  0.10464760  1
  C  C89  1  0.50000000  0.50133520  0.60366773  1
  C  C90  1  0.50000000  0.49959740  0.47881008  1
  C  C91  1  0.50000000  0.50075735  0.97959657  1
  C  C92  1  0.50000000  0.49700339  0.22938439  1
  C  C93  1  0.50000000  0.50116279  0.72905067  1
  C  C94  1  0.50000000  0.49743172  0.35386675  1
  C  C95  1  0.50000000  0.50124836  0.85439590  1
  C  C96  1  0.50000000  0.43816014  0.02066145  1
  C  C97  1  0.50000000  0.43889808  0.52090800  1
  C  C98  1  0.50000000  0.43669580  0.39598181  1
  C  C99  1  0.50000000  0.43968489  0.89583255  1
  C  C100  1  0.50000000  0.43629070  0.14569869  1
  C  C101  1  0.50000000  0.43969147  0.64574752  1
  C  C102  1  0.50000000  0.43586228  0.27082591  1
  C  C103  1  0.50000000  0.43980986  0.77077885  1
  C  C104  1  0.50000000  0.46853861  0.04172172  1
  C  C105  1  0.50000000  0.46998887  0.54148599  1
  C  C106  1  0.50000000  0.46754498  0.41658125  1
  C  C107  1  0.50000000  0.47030600  0.91686826  1
  C  C108  1  0.50000000  0.46666074  0.16672972  1
  C  C109  1  0.50000000  0.47052341  0.66651110  1
  C  C110  1  0.50000000  0.46643984  0.29159728  1
  C  C111  1  0.50000000  0.47051006  0.79176285  1
  C  C112  1  0.50000000  0.52886319  0.08420101  1
  C  C113  1  0.50000000  0.53196803  0.58282000  1
  C  C114  1  0.50000000  0.52995048  0.45752375  1
  C  C115  1  0.50000000  0.53219256  0.95915002  1
  C  C116  1  0.50000000  0.52780993  0.20886058  1
  C  C117  1  0.50000000  0.53172401  0.70814764  1
  C  C118  1  0.50000000  0.52780912  0.33240293  1
  C  C119  1  0.50000000  0.53182193  0.83339286  1
  C  C120  1  0.50000000  0.55854429  0.10631218  1
  C  C121  1  0.50000000  0.56276111  0.60403396  1
  C  C122  1  0.50000000  0.56126434  0.47768081  1
  C  C123  1  0.50000000  0.56288051  0.98026114  1
  C  C124  1  0.50000000  0.55847748  0.22927077  1
  C  C125  1  0.50000000  0.56239642  0.72915321  1
  C  C126  1  0.50000000  0.55846250  0.35240239  1
  C  C127  1  0.50000000  0.56259362  0.85417547  1
  C  C128  1  0.50000000  0.49968378  0.02107800  1
  C  C129  1  0.50000000  0.50070117  0.52029657  1
  C  C130  1  0.50000000  0.49786787  0.39527854  1
  C  C131  1  0.50000000  0.50138574  0.89620624  1
  C  C132  1  0.50000000  0.49746581  0.14605762  1
  C  C133  1  0.50000000  0.50121810  0.64547612  1
  C  C134  1  0.50000000  0.49699546  0.27053545  1
  C  C135  1  0.50000000  0.50116454  0.77079887  1
  C  C136  1  0.50000000  0.53002865  0.04238759  1
  C  C137  1  0.50000000  0.53215261  0.54072489  1
  C  C138  1  0.50000000  0.52881071  0.41571711  1
  C  C139  1  0.50000000  0.53201694  0.91703325  1
  C  C140  1  0.50000000  0.52784584  0.16751623  1
  C  C141  1  0.50000000  0.53182213  0.66643687  1
  C  C142  1  0.50000000  0.52779622  0.29106239  1
  C  C143  1  0.50000000  0.53172174  0.79168721  1
  C  C144  1  0.50000000  0.58874942  0.08629417  1
  C  C145  1  0.50000000  0.59367742  0.58371690  1
  C  C146  1  0.50000000  0.58958545  0.45299523  1
  C  C147  1  0.50000000  0.59429873  0.95810173  1
  C  C148  1  0.50000000  0.58875066  0.20827682  1
  C  C149  1  0.50000000  0.59306451  0.70844453  1
  C  C150  1  0.50000000  0.58869624  0.33133200  1
  C  C151  1  0.50000000  0.59324400  0.83301217  1
  C  C152  1  0.50000000  0.62425805  0.60518517  1
  C  C153  1  0.50000000  0.62598540  0.97441067  1
  C  C154  1  0.50000000  0.62363933  0.72922854  1
  C  C155  1  0.50000000  0.62394789  0.85324258  1
  C  C156  1  0.50000000  0.56135903  0.02223676  1
  C  C157  1  0.50000000  0.56284117  0.51961989  1
  C  C158  1  0.50000000  0.55850159  0.39361310  1
  C  C159  1  0.50000000  0.56277354  0.89576368  1
  C  C160  1  0.50000000  0.55851546  0.14754210  1
  C  C161  1  0.50000000  0.56258167  0.64562168  1
  C  C162  1  0.50000000  0.55847054  0.27066200  1
  C  C163  1  0.50000000  0.56240084  0.77068979  1
  C  C164  1  0.50000000  0.58970056  0.04694193  1
  C  C165  1  0.50000000  0.59430017  0.54167346  1
  C  C166  1  0.50000000  0.58870471  0.41366000  1
  C  C167  1  0.50000000  0.59367028  0.91607223  1
  C  C168  1  0.50000000  0.58874860  0.16865374  1
  C  C169  1  0.50000000  0.59322123  0.66678292  1
  C  C170  1  0.50000000  0.58870286  0.29172746  1
  C  C171  1  0.50000000  0.59308477  0.79135724  1
  C  C172  1  0.50000000  0.65581676  0.58610447  1
  C  C173  1  0.50000000  0.65632684  0.95457227  1
  C  C174  1  0.50000000  0.65458447  0.70866055  1
  C  C175  1  0.50000000  0.65491466  0.83245944  1
  C  C176  1  0.50000000  0.68669760  0.60600529  1
  C  C177  1  0.50000000  0.68660157  0.97554907  1
  C  C178  1  0.50000000  0.68520567  0.72913578  1
  C  C179  1  0.50000000  0.68603010  0.85216097  1
  C  C180  1  0.50000000  0.62599631  0.52531753  1
  C  C181  1  0.50000000  0.62426610  0.89462085  1
  C  C182  1  0.50000000  0.62392573  0.64656596  1
  C  C183  1  0.50000000  0.62365416  0.77057632  1
  C  C184  1  0.50000000  0.65632856  0.54522692  1
  C  C185  1  0.50000000  0.65583334  0.91369947  1
  C  C186  1  0.50000000  0.65489158  0.66735446  1
  C  C187  1  0.50000000  0.65460051  0.79115085  1
  C  C188  1  0.50000000  0.71652773  0.58474856  1
  C  C189  1  0.50000000  0.71657566  0.95573482  1
  C  C190  1  0.50000000  0.71543878  0.70857915  1
  C  C191  1  0.50000000  0.71584856  0.83093376  1
  C  C192  1  0.50000000  0.68666648  0.52433295  1
  C  C193  1  0.50000000  0.68673774  0.89381856  1
  C  C194  1  0.50000000  0.68600589  0.64762954  1
  C  C195  1  0.50000000  0.68521775  0.77067273  1
  C  C196  1  0.50000000  0.71664475  0.54417124  1
  C  C197  1  0.50000000  0.71653920  0.91517787  1
  C  C198  1  0.50000000  0.71582808  0.66884360  1
  C  C199  1  0.50000000  0.71546385  0.79119625  1
  H  H200  1  0.50000000  0.26218562  0.59833880  1
  H  H201  1  0.50000000  0.26229076  0.97256072  1
  H  H202  1  0.50000000  0.26283652  0.72275966  1
  H  H203  1  0.50000000  0.26274362  0.84708056  1
  H  H204  1  0.50000000  0.26218579  0.52749014  1
  H  H205  1  0.50000000  0.26219993  0.90160811  1
  H  H206  1  0.50000000  0.26261437  0.65315521  1
  H  H207  1  0.50000000  0.26287370  0.77720098  1
  H  H208  1  0.50000000  0.74040130  0.59989684  1
  H  H209  1  0.50000000  0.74027039  0.97141091  1
  H  H210  1  0.50000000  0.73914850  0.72389510  1
  H  H211  1  0.50000000  0.73980054  0.84583323  1
  H  H212  1  0.50000000  0.74034722  0.52848151  1
  H  H213  1  0.50000000  0.74048723  0.90021082  1
  H  H214  1  0.50000000  0.73978360  0.65393211  1
  H  H215  1  0.50000000  0.73913838  0.77580519  1
  H  H216  1  0.50000000  0.29104751  0.08867373  1
  H  H217  1  0.50000000  0.29182976  0.46694846  1
  H  H218  1  0.50000000  0.29008585  0.21506066  1
  H  H219  1  0.50000000  0.29031839  0.34133755  1
  H  H220  1  0.50000000  0.29192909  0.03308160  1
  H  H221  1  0.50000000  0.29097379  0.41115855  1
  H  H222  1  0.50000000  0.29036557  0.15865059  1
  H  H223  1  0.50000000  0.29013938  0.28496746  1
  H  H224  1  0.50000000  0.61242766  0.10170493  1
  H  H225  1  0.50000000  0.61453672  0.46327498  1
  H  H226  1  0.50000000  0.61257331  0.22346861  1
  H  H227  1  0.50000000  0.61255883  0.34633650  1
  H  H228  1  0.50000000  0.63075610  0.00478014  1
  H  H229  1  0.50000000  0.61469143  0.03674582  1
  H  H230  1  0.50000000  0.61248387  0.39845521  1
  H  H231  1  0.50000000  0.61257141  0.15353956  1
  H  H232  1  0.50000000  0.61258914  0.27673087  1
  H  H233  1  0.50000000  0.68589134  0.00734636  1
  H  H234  1  0.50000000  0.63087795  0.49492247  1
  H  H235  1  0.50000000  0.68597400  0.49254512  1
