# generated using pymatgen
data_H13C50
_symmetry_space_group_name_H-M   'P 1'
_cell_length_a   20.00000000
_cell_length_b   40.19450000
_cell_length_c   34.54194934
_cell_angle_alpha   90.00000000
_cell_angle_beta   90.00000000
_cell_angle_gamma   90.00000000
_symmetry_Int_Tables_number   1
_chemical_formula_structural   H13C50
_chemical_formula_sum   'H52 C200'
_cell_volume   27767.92765508
_cell_formula_units_Z   4
loop_
 _symmetry_equiv_pos_site_id
 _symmetry_equiv_pos_as_xyz
  1  'x, y, z'
loop_
 _atom_site_type_symbol
 _atom_site_label
 _atom_site_symmetry_multiplicity
 _atom_site_fract_x
 _atom_site_fract_y
 _atom_site_fract_z
 _atom_site_occupancy
  C  C0  1  0.50000000  0.28588167  0.08228208  1
  C  C1  1  0.50000000  0.28562035  0.58248728  1
  C  C2  1  0.50000000  0.28575467  0.45753959  1
  C  C3  1  0.50000000  0.28565896  0.95737253  1
  C  C4  1  0.50000000  0.28594590  0.20736690  1
  C  C5  1  0.50000000  0.28554338  0.70753868  1
  C  C6  1  0.50000000  0.28595263  0.33241376  1
  C  C7  1  0.50000000  0.28553192  0.83238412  1
  C  C8  1  0.50000000  0.31578344  0.10379892  1
  C  C9  1  0.50000000  0.31547353  0.60411486  1
  C  C10  1  0.50000000  0.31561154  0.47911394  1
  C  C11  1  0.50000000  0.31560458  0.97883227  1
  C  C12  1  0.50000000  0.31581045  0.22886945  1
  C  C13  1  0.50000000  0.31547819  0.72901404  1
  C  C14  1  0.50000000  0.31575612  0.35404117  1
  C  C15  1  0.50000000  0.31546671  0.85389103  1
  C  C16  1  0.50000000  0.28580446  0.04229857  1
  C  C17  1  0.50000000  0.28565694  0.54253399  1
  C  C18  1  0.50000000  0.28578742  0.41755359  1
  C  C19  1  0.50000000  0.28560977  0.91741017  1
  C  C20  1  0.50000000  0.28595974  0.16733522  1
  C  C21  1  0.50000000  0.28554103  0.66761560  1
  C  C22  1  0.50000000  0.28593456  0.29239187  1
  C  C23  1  0.50000000  0.28552857  0.79244985  1
  C  C24  1  0.50000000  0.34644507  0.08308406  1
  C  C25  1  0.50000000  0.34616902  0.58347263  1
  C  C26  1  0.50000000  0.34630215  0.45844377  1
  C  C27  1  0.50000000  0.34621103  0.95804429  1
  C  C28  1  0.50000000  0.34651690  0.20812376  1
  C  C29  1  0.50000000  0.34611103  0.70832376  1
  C  C30  1  0.50000000  0.34648982  0.33335383  1
  C  C31  1  0.50000000  0.34612144  0.83319215  1
  C  C32  1  0.50000000  0.37732444  0.10387669  1
  C  C33  1  0.50000000  0.37696940  0.60440277  1
  C  C34  1  0.50000000  0.37705435  0.47942009  1
  C  C35  1  0.50000000  0.37707203  0.97885479  1
  C  C36  1  0.50000000  0.37727592  0.22904747  1
  C  C37  1  0.50000000  0.37694287  0.72921572  1
  C  C38  1  0.50000000  0.37725239  0.35426044  1
  C  C39  1  0.50000000  0.37697165  0.85402798  1
  C  C40  1  0.50000000  0.31567358  0.02077414  1
  C  C41  1  0.50000000  0.31558175  0.52105981  1
  C  C42  1  0.50000000  0.31568779  0.39605873  1
  C  C43  1  0.50000000  0.31548948  0.89582123  1
  C  C44  1  0.50000000  0.31579210  0.14578305  1
  C  C45  1  0.50000000  0.31544981  0.64605315  1
  C  C46  1  0.50000000  0.31579848  0.27090403  1
  C  C47  1  0.50000000  0.31546733  0.77093482  1
  C  C48  1  0.50000000  0.34636994  0.04143510  1
  C  C49  1  0.50000000  0.34619263  0.54185261  1
  C  C50  1  0.50000000  0.34635114  0.41678700  1
  C  C51  1  0.50000000  0.34618370  0.91644205  1
  C  C52  1  0.50000000  0.34652032  0.16643852  1
  C  C53  1  0.50000000  0.34611182  0.66673426  1
  C  C54  1  0.50000000  0.34649352  0.29168399  1
  C  C55  1  0.50000000  0.34611019  0.79160308  1
  C  C56  1  0.50000000  0.40777270  0.08293473  1
  C  C57  1  0.50000000  0.40758434  0.58360901  1
  C  C58  1  0.50000000  0.40764682  0.45865200  1
  C  C59  1  0.50000000  0.40759746  0.95792114  1
  C  C60  1  0.50000000  0.40780247  0.20820453  1
  C  C61  1  0.50000000  0.40756946  0.70840929  1
  C  C62  1  0.50000000  0.40777487  0.33340883  1
  C  C63  1  0.50000000  0.40758613  0.83318710  1
  C  C64  1  0.50000000  0.43861977  0.10370879  1
  C  C65  1  0.50000000  0.43829314  0.60444522  1
  C  C66  1  0.50000000  0.43825313  0.47966168  1
  C  C67  1  0.50000000  0.43838944  0.97866011  1
  C  C68  1  0.50000000  0.43856154  0.22911165  1
  C  C69  1  0.50000000  0.43822680  0.72918068  1
  C  C70  1  0.50000000  0.43854277  0.35443011  1
  C  C71  1  0.50000000  0.43826839  0.85389170  1
  C  C72  1  0.50000000  0.37711336  0.02043829  1
  C  C73  1  0.50000000  0.37703412  0.52101838  1
  C  C74  1  0.50000000  0.37723060  0.39597517  1
  C  C75  1  0.50000000  0.37698624  0.89550766  1
  C  C76  1  0.50000000  0.37732467  0.14557389  1
  C  C77  1  0.50000000  0.37695986  0.64588867  1
  C  C78  1  0.50000000  0.37724877  0.27075941  1
  C  C79  1  0.50000000  0.37693642  0.77069300  1
  C  C80  1  0.50000000  0.40772525  0.04119268  1
  C  C81  1  0.50000000  0.40755816  0.54195351  1
  C  C82  1  0.50000000  0.40768312  0.41691575  1
  C  C83  1  0.50000000  0.40760914  0.91627131  1
  C  C84  1  0.50000000  0.40783666  0.16645955  1
  C  C85  1  0.50000000  0.40758316  0.66670449  1
  C  C86  1  0.50000000  0.40775969  0.29166330  1
  C  C87  1  0.50000000  0.40756500  0.79148039  1
  C  C88  1  0.50000000  0.46932305  0.08291011  1
  C  C89  1  0.50000000  0.46902823  0.58375524  1
  C  C90  1  0.50000000  0.46921417  0.45919870  1
  C  C91  1  0.50000000  0.46905618  0.95761979  1
  C  C92  1  0.50000000  0.46925129  0.20832468  1
  C  C93  1  0.50000000  0.46898724  0.70835588  1
  C  C94  1  0.50000000  0.46924480  0.33367554  1
  C  C95  1  0.50000000  0.46899632  0.83299067  1
  C  C96  1  0.50000000  0.49906495  0.10454910  1
  C  C97  1  0.50000000  0.49973986  0.60463427  1
  C  C98  1  0.50000000  0.49872849  0.48066372  1
  C  C99  1  0.50000000  0.49968693  0.97846759  1
  C  C100  1  0.50000000  0.49903929  0.22995846  1
  C  C101  1  0.50000000  0.49961273  0.72915165  1
  C  C102  1  0.50000000  0.49903019  0.35530279  1
  C  C103  1  0.50000000  0.49970235  0.85361544  1
  C  C104  1  0.50000000  0.43833462  0.02018438  1
  C  C105  1  0.50000000  0.43833781  0.52118582  1
  C  C106  1  0.50000000  0.43854103  0.39614494  1
  C  C107  1  0.50000000  0.43830143  0.89541102  1
  C  C108  1  0.50000000  0.43860080  0.14542031  1
  C  C109  1  0.50000000  0.43826240  0.64597748  1
  C  C110  1  0.50000000  0.43854290  0.27079300  1
  C  C111  1  0.50000000  0.43821788  0.77068709  1
  C  C112  1  0.50000000  0.46931112  0.04064770  1
  C  C113  1  0.50000000  0.46902795  0.54219440  1
  C  C114  1  0.50000000  0.46922497  0.41696760  1
  C  C115  1  0.50000000  0.46904078  0.91606843  1
  C  C116  1  0.50000000  0.46927446  0.16623119  1
  C  C117  1  0.50000000  0.46899805  0.66686164  1
  C  C118  1  0.50000000  0.46922441  0.29159477  1
  C  C119  1  0.50000000  0.46898043  0.79150003  1
  C  C120  1  0.50000000  0.53055629  0.58416296  1
  C  C121  1  0.50000000  0.53102523  0.95725300  1
  C  C122  1  0.50000000  0.53033058  0.70850919  1
  C  C123  1  0.50000000  0.53035875  0.83267112  1
  C  C124  1  0.50000000  0.56119682  0.60523818  1
  C  C125  1  0.50000000  0.56178872  0.97610300  1
  C  C126  1  0.50000000  0.56112840  0.72921201  1
  C  C127  1  0.50000000  0.56118770  0.85313459  1
  C  C128  1  0.50000000  0.49879794  0.01911856  1
  C  C129  1  0.50000000  0.49965607  0.52131582  1
  C  C130  1  0.50000000  0.49897532  0.39536089  1
  C  C131  1  0.50000000  0.49974552  0.89517213  1
  C  C132  1  0.50000000  0.49906345  0.14461845  1
  C  C133  1  0.50000000  0.49969662  0.64620488  1
  C  C134  1  0.50000000  0.49902695  0.27000035  1
  C  C135  1  0.50000000  0.49961134  0.77069938  1
  C  C136  1  0.50000000  0.53099657  0.54252372  1
  C  C137  1  0.50000000  0.53057490  0.91561854  1
  C  C138  1  0.50000000  0.53034960  0.66713926  1
  C  C139  1  0.50000000  0.53034311  0.79130197  1
  C  C140  1  0.50000000  0.59207303  0.58519016  1
  C  C141  1  0.50000000  0.59224950  0.95601537  1
  C  C142  1  0.50000000  0.59186338  0.70866785  1
  C  C143  1  0.50000000  0.59189889  0.83255114  1
  C  C144  1  0.50000000  0.62284809  0.60549038  1
  C  C145  1  0.50000000  0.62298358  0.97586049  1
  C  C146  1  0.50000000  0.62259556  0.72929325  1
  C  C147  1  0.50000000  0.62273804  0.85300565  1
  C  C148  1  0.50000000  0.56175452  0.52366368  1
  C  C149  1  0.50000000  0.56121896  0.89454358  1
  C  C150  1  0.50000000  0.56116814  0.64665295  1
  C  C151  1  0.50000000  0.56113644  0.77058049  1
  C  C152  1  0.50000000  0.59220847  0.54376437  1
  C  C153  1  0.50000000  0.59210248  0.91458742  1
  C  C154  1  0.50000000  0.59188128  0.66723181  1
  C  C155  1  0.50000000  0.59186935  0.79111754  1
  C  C156  1  0.50000000  0.65368231  0.58477217  1
  C  C157  1  0.50000000  0.65350384  0.95683716  1
  C  C158  1  0.50000000  0.65350758  0.70868967  1
  C  C159  1  0.50000000  0.65349102  0.83242529  1
  C  C160  1  0.50000000  0.68571634  0.10370467  1
  C  C161  1  0.50000000  0.68421684  0.60523344  1
  C  C162  1  0.50000000  0.68649084  0.48196056  1
  C  C163  1  0.50000000  0.68524946  0.97746218  1
  C  C164  1  0.50000000  0.68494266  0.22992660  1
  C  C165  1  0.50000000  0.68419648  0.72913714  1
  C  C166  1  0.50000000  0.68538912  0.35607333  1
  C  C167  1  0.50000000  0.68423732  0.85304307  1
  C  C168  1  0.50000000  0.62293866  0.52392410  1
  C  C169  1  0.50000000  0.62287171  0.89428155  1
  C  C170  1  0.50000000  0.62272059  0.64677330  1
  C  C171  1  0.50000000  0.62259152  0.77048254  1
  C  C172  1  0.50000000  0.65347112  0.54290388  1
  C  C173  1  0.50000000  0.65370664  0.91498598  1
  C  C174  1  0.50000000  0.65349424  0.66733221  1
  C  C175  1  0.50000000  0.65349456  0.79109291  1
  C  C176  1  0.50000000  0.71474027  0.08075736  1
  C  C177  1  0.50000000  0.71472040  0.58393812  1
  C  C178  1  0.50000000  0.71522560  0.45900490  1
  C  C179  1  0.50000000  0.71514358  0.95518935  1
  C  C180  1  0.50000000  0.71402488  0.20684830  1
  C  C181  1  0.50000000  0.71430446  0.70780737  1
  C  C182  1  0.50000000  0.71418042  0.33261801  1
  C  C183  1  0.50000000  0.71436147  0.83165763  1
  C  C184  1  0.50000000  0.68652993  0.01776360  1
  C  C185  1  0.50000000  0.68518929  0.52224579  1
  C  C186  1  0.50000000  0.68564833  0.39599675  1
  C  C187  1  0.50000000  0.68421092  0.89446209  1
  C  C188  1  0.50000000  0.68545962  0.14362663  1
  C  C189  1  0.50000000  0.68423671  0.64666367  1
  C  C190  1  0.50000000  0.68490606  0.26976244  1
  C  C191  1  0.50000000  0.68419937  0.77066274  1
  C  C192  1  0.50000000  0.71526435  0.04063994  1
  C  C193  1  0.50000000  0.71510708  0.54445251  1
  C  C194  1  0.50000000  0.71469448  0.41888004  1
  C  C195  1  0.50000000  0.71471828  0.91571000  1
  C  C196  1  0.50000000  0.71426194  0.16701041  1
  C  C197  1  0.50000000  0.71432932  0.66810638  1
  C  C198  1  0.50000000  0.71398195  0.29278464  1
  C  C199  1  0.50000000  0.71434163  0.79196859  1
  H  H200  1  0.50000000  0.26188305  0.09715113  1
  H  H201  1  0.50000000  0.26157130  0.59722922  1
  H  H202  1  0.50000000  0.26170190  0.47230043  1
  H  H203  1  0.50000000  0.26166911  0.97228809  1
  H  H204  1  0.50000000  0.26190507  0.22217771  1
  H  H205  1  0.50000000  0.26156785  0.72246272  1
  H  H206  1  0.50000000  0.26189371  0.34714073  1
  H  H207  1  0.50000000  0.26156172  0.84733808  1
  H  H208  1  0.50000000  0.26181466  0.02736528  1
  H  H209  1  0.50000000  0.26164815  0.52767468  1
  H  H210  1  0.50000000  0.26174282  0.40276153  1
  H  H211  1  0.50000000  0.26159137  0.90256665  1
  H  H212  1  0.50000000  0.26195156  0.15245970  1
  H  H213  1  0.50000000  0.26152089  0.65282059  1
  H  H214  1  0.50000000  0.26192547  0.27751912  1
  H  H215  1  0.50000000  0.26154068  0.77754763  1
  H  H216  1  0.50000000  0.73887433  0.09548983  1
  H  H217  1  0.50000000  0.73849265  0.59924005  1
  H  H218  1  0.50000000  0.73973443  0.47281501  1
  H  H219  1  0.50000000  0.73915819  0.97002390  1
  H  H220  1  0.50000000  0.73827971  0.22134602  1
  H  H221  1  0.50000000  0.73824329  0.72278075  1
  H  H222  1  0.50000000  0.73860424  0.34668275  1
  H  H223  1  0.50000000  0.73827052  0.84666941  1
  H  H224  1  0.50000000  0.73972540  0.02672352  1
  H  H225  1  0.50000000  0.73899928  0.52931567  1
  H  H226  1  0.50000000  0.73875985  0.40397452  1
  H  H227  1  0.50000000  0.73853890  0.90052921  1
  H  H228  1  0.50000000  0.73864347  0.15281650  1
  H  H229  1  0.50000000  0.73832730  0.65330610  1
  H  H230  1  0.50000000  0.73817880  0.27813099  1
  H  H231  1  0.50000000  0.73824599  0.77689495  1
  H  H232  1  0.50000000  0.52313501  0.08980671  1
  H  H233  1  0.50000000  0.52229995  0.46504586  1
  H  H234  1  0.50000000  0.52306905  0.21517222  1
  H  H235  1  0.50000000  0.52308107  0.34056122  1
  H  H236  1  0.50000000  0.56296111  0.00773562  1
  H  H237  1  0.50000000  0.52242289  0.03460349  1
  H  H238  1  0.50000000  0.52300283  0.41020036  1
  H  H239  1  0.50000000  0.52308739  0.15942691  1
  H  H240  1  0.50000000  0.52303647  0.28484795  1
  H  H241  1  0.50000000  0.62184072  0.00751468  1
  H  H242  1  0.50000000  0.56293879  0.49202508  1
  H  H243  1  0.50000000  0.66136279  0.08942901  1
  H  H244  1  0.50000000  0.66279656  0.46652476  1
  H  H245  1  0.50000000  0.66062522  0.21556307  1
  H  H246  1  0.50000000  0.66098408  0.34191103  1
  H  H247  1  0.50000000  0.62176069  0.49227759  1
  H  H248  1  0.50000000  0.66291266  0.03337543  1
  H  H249  1  0.50000000  0.66132449  0.41036063  1
  H  H250  1  0.50000000  0.66112152  0.15794498  1
  H  H251  1  0.50000000  0.66062934  0.28425279  1
