# generated using pymatgen
data_H13C50
_symmetry_space_group_name_H-M   'P 1'
_cell_length_a   20.00000000
_cell_length_b   40.19450000
_cell_length_c   34.48302811
_cell_angle_alpha   90.00000000
_cell_angle_beta   90.00000000
_cell_angle_gamma   90.00000000
_symmetry_Int_Tables_number   1
_chemical_formula_structural   H13C50
_chemical_formula_sum   'H52 C200'
_cell_volume   27720.56147119
_cell_formula_units_Z   4
loop_
 _symmetry_equiv_pos_site_id
 _symmetry_equiv_pos_as_xyz
  1  'x, y, z'
loop_
 _atom_site_type_symbol
 _atom_site_label
 _atom_site_symmetry_multiplicity
 _atom_site_fract_x
 _atom_site_fract_y
 _atom_site_fract_z
 _atom_site_occupancy
  C  C0  1  0.50000000  0.28560183  0.08235355  1
  C  C1  1  0.50000000  0.28554087  0.58261763  1
  C  C2  1  0.50000000  0.28552630  0.45747235  1
  C  C3  1  0.50000000  0.28546483  0.95720466  1
  C  C4  1  0.50000000  0.28572237  0.20734414  1
  C  C5  1  0.50000000  0.28559829  0.70746654  1
  C  C6  1  0.50000000  0.28576231  0.33248257  1
  C  C7  1  0.50000000  0.28560522  0.83238645  1
  C  C8  1  0.50000000  0.31561236  0.10372181  1
  C  C9  1  0.50000000  0.31550296  0.60405670  1
  C  C10  1  0.50000000  0.31541683  0.47909111  1
  C  C11  1  0.50000000  0.31541226  0.97869994  1
  C  C12  1  0.50000000  0.31562671  0.22880845  1
  C  C13  1  0.50000000  0.31553337  0.72894086  1
  C  C14  1  0.50000000  0.31565435  0.35398815  1
  C  C15  1  0.50000000  0.31554032  0.85383278  1
  C  C16  1  0.50000000  0.28545685  0.04235212  1
  C  C17  1  0.50000000  0.28550919  0.54266097  1
  C  C18  1  0.50000000  0.28568742  0.41748890  1
  C  C19  1  0.50000000  0.28550276  0.91721626  1
  C  C20  1  0.50000000  0.28568107  0.16730525  1
  C  C21  1  0.50000000  0.28561008  0.66747578  1
  C  C22  1  0.50000000  0.28579764  0.29245328  1
  C  C23  1  0.50000000  0.28559588  0.79240832  1
  C  C24  1  0.50000000  0.34614881  0.08301842  1
  C  C25  1  0.50000000  0.34612438  0.58338377  1
  C  C26  1  0.50000000  0.34608792  0.45847138  1
  C  C27  1  0.50000000  0.34605997  0.95802696  1
  C  C28  1  0.50000000  0.34621012  0.20812477  1
  C  C29  1  0.50000000  0.34618999  0.70827464  1
  C  C30  1  0.50000000  0.34625823  0.33330976  1
  C  C31  1  0.50000000  0.34620288  0.83317243  1
  C  C32  1  0.50000000  0.37715107  0.10389617  1
  C  C33  1  0.50000000  0.37704404  0.60432064  1
  C  C34  1  0.50000000  0.37690952  0.47951156  1
  C  C35  1  0.50000000  0.37701407  0.97885983  1
  C  C36  1  0.50000000  0.37714186  0.22906051  1
  C  C37  1  0.50000000  0.37705036  0.72916392  1
  C  C38  1  0.50000000  0.37719853  0.35425113  1
  C  C39  1  0.50000000  0.37706237  0.85402422  1
  C  C40  1  0.50000000  0.31537876  0.02074904  1
  C  C41  1  0.50000000  0.31544504  0.52112959  1
  C  C42  1  0.50000000  0.31569125  0.39609173  1
  C  C43  1  0.50000000  0.31550652  0.89581536  1
  C  C44  1  0.50000000  0.31558760  0.14581980  1
  C  C45  1  0.50000000  0.31553537  0.64603159  1
  C  C46  1  0.50000000  0.31567811  0.27094828  1
  C  C47  1  0.50000000  0.31553169  0.77092424  1
  C  C48  1  0.50000000  0.34605558  0.04137194  1
  C  C49  1  0.50000000  0.34608830  0.54181305  1
  C  C50  1  0.50000000  0.34623420  0.41679446  1
  C  C51  1  0.50000000  0.34613450  0.91645530  1
  C  C52  1  0.50000000  0.34619703  0.16649354  1
  C  C53  1  0.50000000  0.34619054  0.66667449  1
  C  C54  1  0.50000000  0.34626274  0.29168485  1
  C  C55  1  0.50000000  0.34620103  0.79158275  1
  C  C56  1  0.50000000  0.40775656  0.08312005  1
  C  C57  1  0.50000000  0.40764556  0.58370499  1
  C  C58  1  0.50000000  0.40775500  0.45905455  1
  C  C59  1  0.50000000  0.40764076  0.95785880  1
  C  C60  1  0.50000000  0.40772602  0.20835640  1
  C  C61  1  0.50000000  0.40767121  0.70838635  1
  C  C62  1  0.50000000  0.40779119  0.33354616  1
  C  C63  1  0.50000000  0.40765228  0.83314313  1
  C  C64  1  0.50000000  0.43761679  0.10464323  1
  C  C65  1  0.50000000  0.43835368  0.60458129  1
  C  C66  1  0.50000000  0.43732380  0.48048826  1
  C  C67  1  0.50000000  0.43822809  0.97870586  1
  C  C68  1  0.50000000  0.43762236  0.22984119  1
  C  C69  1  0.50000000  0.43833662  0.72917836  1
  C  C70  1  0.50000000  0.43766547  0.35505960  1
  C  C71  1  0.50000000  0.43837424  0.85376972  1
  C  C72  1  0.50000000  0.37687446  0.02031576  1
  C  C73  1  0.50000000  0.37704701  0.52096712  1
  C  C74  1  0.50000000  0.37725228  0.39587921  1
  C  C75  1  0.50000000  0.37705491  0.89551793  1
  C  C76  1  0.50000000  0.37712333  0.14553188  1
  C  C77  1  0.50000000  0.37704982  0.64581489  1
  C  C78  1  0.50000000  0.37717250  0.27072292  1
  C  C79  1  0.50000000  0.37704466  0.77065818  1
  C  C80  1  0.50000000  0.40772167  0.04076726  1
  C  C81  1  0.50000000  0.40765007  0.54196040  1
  C  C82  1  0.50000000  0.40784236  0.41667970  1
  C  C83  1  0.50000000  0.40765038  0.91611186  1
  C  C84  1  0.50000000  0.40771697  0.16623077  1
  C  C85  1  0.50000000  0.40764562  0.66667419  1
  C  C86  1  0.50000000  0.40777060  0.29141988  1
  C  C87  1  0.50000000  0.40766960  0.79142867  1
  C  C88  1  0.50000000  0.46923084  0.58399601  1
  C  C89  1  0.50000000  0.46960638  0.95743206  1
  C  C90  1  0.50000000  0.46915893  0.70847262  1
  C  C91  1  0.50000000  0.46913421  0.83274399  1
  C  C92  1  0.50000000  0.49978747  0.60503369  1
  C  C93  1  0.50000000  0.50017842  0.97641175  1
  C  C94  1  0.50000000  0.49987733  0.72914565  1
  C  C95  1  0.50000000  0.49984030  0.85322792  1
  C  C96  1  0.50000000  0.43729712  0.01931833  1
  C  C97  1  0.50000000  0.43822960  0.52110576  1
  C  C98  1  0.50000000  0.43769908  0.39515478  1
  C  C99  1  0.50000000  0.43835818  0.89523355  1
  C  C100  1  0.50000000  0.43758117  0.14471911  1
  C  C101  1  0.50000000  0.43837003  0.64604050  1
  C  C102  1  0.50000000  0.43764415  0.26989856  1
  C  C103  1  0.50000000  0.43833319  0.77061913  1
  C  C104  1  0.50000000  0.46960608  0.54236903  1
  C  C105  1  0.50000000  0.46924332  0.91579996  1
  C  C106  1  0.50000000  0.46913567  0.66705457  1
  C  C107  1  0.50000000  0.46915828  0.79132345  1
  C  C108  1  0.50000000  0.53063299  0.58483859  1
  C  C109  1  0.50000000  0.53064420  0.95630014  1
  C  C110  1  0.50000000  0.53064747  0.70851432  1
  C  C111  1  0.50000000  0.53064143  0.83265272  1
  C  C112  1  0.50000000  0.56154439  0.60500479  1
  C  C113  1  0.50000000  0.56125329  0.97645693  1
  C  C114  1  0.50000000  0.56150236  0.72917378  1
  C  C115  1  0.50000000  0.56153501  0.85329212  1
  C  C116  1  0.50000000  0.50016565  0.52334250  1
  C  C117  1  0.50000000  0.49979738  0.89475600  1
  C  C118  1  0.50000000  0.49983734  0.64656436  1
  C  C119  1  0.50000000  0.49988216  0.77066103  1
  C  C120  1  0.50000000  0.53063658  0.54344862  1
  C  C121  1  0.50000000  0.53065590  0.91492007  1
  C  C122  1  0.50000000  0.53063304  0.66713855  1
  C  C123  1  0.50000000  0.53065779  0.79128085  1
  C  C124  1  0.50000000  0.59213056  0.58391630  1
  C  C125  1  0.50000000  0.59175061  0.95761623  1
  C  C126  1  0.50000000  0.59223091  0.70847694  1
  C  C127  1  0.50000000  0.59221770  0.83286953  1
  C  C128  1  0.50000000  0.62372626  0.10466423  1
  C  C129  1  0.50000000  0.62287999  0.60448077  1
  C  C130  1  0.50000000  0.62419319  0.48056370  1
  C  C131  1  0.50000000  0.62333756  0.97895775  1
  C  C132  1  0.50000000  0.62353082  0.22988778  1
  C  C133  1  0.50000000  0.62295502  0.72921196  1
  C  C134  1  0.50000000  0.62357082  0.35519501  1
  C  C135  1  0.50000000  0.62290207  0.85396607  1
  C  C136  1  0.50000000  0.56124480  0.52328289  1
  C  C137  1  0.50000000  0.56157154  0.89475352  1
  C  C138  1  0.50000000  0.56152259  0.64648094  1
  C  C139  1  0.50000000  0.56151056  0.77061716  1
  C  C140  1  0.50000000  0.59173066  0.54211819  1
  C  C141  1  0.50000000  0.59215515  0.91581815  1
  C  C142  1  0.50000000  0.59220573  0.66691590  1
  C  C143  1  0.50000000  0.59224301  0.79131137  1
  C  C144  1  0.50000000  0.65384906  0.08294529  1
  C  C145  1  0.50000000  0.65392018  0.58348684  1
  C  C146  1  0.50000000  0.65398961  0.45885799  1
  C  C147  1  0.50000000  0.65411378  0.95790115  1
  C  C148  1  0.50000000  0.65366167  0.20818367  1
  C  C149  1  0.50000000  0.65380624  0.70828375  1
  C  C150  1  0.50000000  0.65362163  0.33339580  1
  C  C151  1  0.50000000  0.65378010  0.83313966  1
  C  C152  1  0.50000000  0.68442235  0.10374418  1
  C  C153  1  0.50000000  0.68443597  0.60410653  1
  C  C154  1  0.50000000  0.68483672  0.47923995  1
  C  C155  1  0.50000000  0.68479800  0.97872095  1
  C  C156  1  0.50000000  0.68430321  0.22887721  1
  C  C157  1  0.50000000  0.68446271  0.72895839  1
  C  C158  1  0.50000000  0.68428220  0.35406357  1
  C  C159  1  0.50000000  0.68444768  0.85383590  1
  C  C160  1  0.50000000  0.62431343  0.01921523  1
  C  C161  1  0.50000000  0.62327529  0.52082516  1
  C  C162  1  0.50000000  0.62357181  0.39504555  1
  C  C163  1  0.50000000  0.62291463  0.89530265  1
  C  C164  1  0.50000000  0.62370036  0.14449498  1
  C  C165  1  0.50000000  0.62289720  0.64582904  1
  C  C166  1  0.50000000  0.62349085  0.26971970  1
  C  C167  1  0.50000000  0.62296514  0.77058481  1
  C  C168  1  0.50000000  0.65413281  0.04088814  1
  C  C169  1  0.50000000  0.65405318  0.54187228  1
  C  C170  1  0.50000000  0.65370781  0.41677256  1
  C  C171  1  0.50000000  0.65395519  0.91629144  1
  C  C172  1  0.50000000  0.65373342  0.16628202  1
  C  C173  1  0.50000000  0.65378224  0.66668125  1
  C  C174  1  0.50000000  0.65359862  0.29146848  1
  C  C175  1  0.50000000  0.65379987  0.79154724  1
  C  C176  1  0.50000000  0.71470510  0.08225402  1
  C  C177  1  0.50000000  0.71458990  0.58258831  1
  C  C178  1  0.50000000  0.71481481  0.45728714  1
  C  C179  1  0.50000000  0.71485409  0.95699654  1
  C  C180  1  0.50000000  0.71446525  0.20718660  1
  C  C181  1  0.50000000  0.71444583  0.70742841  1
  C  C182  1  0.50000000  0.71441575  0.33231681  1
  C  C183  1  0.50000000  0.71444088  0.83233986  1
  C  C184  1  0.50000000  0.68496005  0.02049956  1
  C  C185  1  0.50000000  0.68472657  0.52103450  1
  C  C186  1  0.50000000  0.68428480  0.39595689  1
  C  C187  1  0.50000000  0.68446689  0.89571295  1
  C  C188  1  0.50000000  0.68440223  0.14563300  1
  C  C189  1  0.50000000  0.68444379  0.64599069  1
  C  C190  1  0.50000000  0.68426221  0.27079249  1
  C  C191  1  0.50000000  0.68446145  0.77088588  1
  C  C192  1  0.50000000  0.71496807  0.04244811  1
  C  C193  1  0.50000000  0.71478219  0.54280076  1
  C  C194  1  0.50000000  0.71454192  0.41748733  1
  C  C195  1  0.50000000  0.71467195  0.91719736  1
  C  C196  1  0.50000000  0.71453156  0.16737485  1
  C  C197  1  0.50000000  0.71443873  0.66750305  1
  C  C198  1  0.50000000  0.71438337  0.29251829  1
  C  C199  1  0.50000000  0.71444735  0.79242036  1
  H  H200  1  0.50000000  0.26174791  0.09759877  1
  H  H201  1  0.50000000  0.26159760  0.59763823  1
  H  H202  1  0.50000000  0.26144726  0.47219885  1
  H  H203  1  0.50000000  0.26153763  0.97226030  1
  H  H204  1  0.50000000  0.26175628  0.22228546  1
  H  H205  1  0.50000000  0.26162543  0.72242539  1
  H  H206  1  0.50000000  0.26172325  0.34728535  1
  H  H207  1  0.50000000  0.26167528  0.84744196  1
  H  H208  1  0.50000000  0.26142073  0.02750579  1
  H  H209  1  0.50000000  0.26148613  0.52782440  1
  H  H210  1  0.50000000  0.26176227  0.40243991  1
  H  H211  1  0.50000000  0.26159703  0.90209187  1
  H  H212  1  0.50000000  0.26167402  0.15241348  1
  H  H213  1  0.50000000  0.26163910  0.65255006  1
  H  H214  1  0.50000000  0.26180799  0.27756953  1
  H  H215  1  0.50000000  0.26163431  0.77742851  1
  H  H216  1  0.50000000  0.73848819  0.09766475  1
  H  H217  1  0.50000000  0.73847902  0.59769782  1
  H  H218  1  0.50000000  0.73892677  0.47193482  1
  H  H219  1  0.50000000  0.73877446  0.97207388  1
  H  H220  1  0.50000000  0.73840953  0.22221355  1
  H  H221  1  0.50000000  0.73840658  0.72240159  1
  H  H222  1  0.50000000  0.73845601  0.34712894  1
  H  H223  1  0.50000000  0.73835809  0.84742119  1
  H  H224  1  0.50000000  0.73904045  0.02770386  1
  H  H225  1  0.50000000  0.73879416  0.52794315  1
  H  H226  1  0.50000000  0.73840330  0.40229138  1
  H  H227  1  0.50000000  0.73852773  0.90197606  1
  H  H228  1  0.50000000  0.73854050  0.15246923  1
  H  H229  1  0.50000000  0.73840748  0.65255948  1
  H  H230  1  0.50000000  0.73834796  0.27754128  1
  H  H231  1  0.50000000  0.73841511  0.77745863  1
  H  H232  1  0.50000000  0.46167432  0.08981805  1
  H  H233  1  0.50000000  0.46078818  0.46468155  1
  H  H234  1  0.50000000  0.46153665  0.21477602  1
  H  H235  1  0.50000000  0.46154610  0.33991927  1
  H  H236  1  0.50000000  0.50142768  0.00807510  1
  H  H237  1  0.50000000  0.46080229  0.03502361  1
  H  H238  1  0.50000000  0.46172803  0.41004268  1
  H  H239  1  0.50000000  0.46148220  0.15978221  1
  H  H240  1  0.50000000  0.46158500  0.28491205  1
  H  H241  1  0.50000000  0.55986267  0.00814422  1
  H  H242  1  0.50000000  0.50139385  0.49165386  1
  H  H243  1  0.50000000  0.59968924  0.08981330  1
  H  H244  1  0.50000000  0.60079090  0.46464599  1
  H  H245  1  0.50000000  0.59963166  0.21477070  1
  H  H246  1  0.50000000  0.59968094  0.34007751  1
  H  H247  1  0.50000000  0.55980553  0.49158995  1
  H  H248  1  0.50000000  0.60087587  0.03505243  1
  H  H249  1  0.50000000  0.59953023  0.40992260  1
  H  H250  1  0.50000000  0.59978778  0.15954304  1
  H  H251  1  0.50000000  0.59955624  0.28477860  1
