# generated using pymatgen
data_H9C50
_symmetry_space_group_name_H-M   'P 1'
_cell_length_a   20.00000000
_cell_length_b   40.19450000
_cell_length_c   34.35493142
_cell_angle_alpha   90.00000000
_cell_angle_beta   90.00000000
_cell_angle_gamma   90.00000000
_symmetry_Int_Tables_number   1
_chemical_formula_structural   H9C50
_chemical_formula_sum   'H36 C200'
_cell_volume   27617.58582034
_cell_formula_units_Z   4
loop_
 _symmetry_equiv_pos_site_id
 _symmetry_equiv_pos_as_xyz
  1  'x, y, z'
loop_
 _atom_site_type_symbol
 _atom_site_label
 _atom_site_symmetry_multiplicity
 _atom_site_fract_x
 _atom_site_fract_y
 _atom_site_fract_z
 _atom_site_occupancy
  C  C0  1  0.50000000  0.28550745  0.08243527  1
  C  C1  1  0.50000000  0.28555937  0.58238745  1
  C  C2  1  0.50000000  0.28550299  0.45734943  1
  C  C3  1  0.50000000  0.28554207  0.95740390  1
  C  C4  1  0.50000000  0.28555063  0.20741962  1
  C  C5  1  0.50000000  0.28562059  0.70737344  1
  C  C6  1  0.50000000  0.28557900  0.33239977  1
  C  C7  1  0.50000000  0.28563624  0.83245025  1
  C  C8  1  0.50000000  0.31554810  0.10399284  1
  C  C9  1  0.50000000  0.31559446  0.60393552  1
  C  C10  1  0.50000000  0.31550844  0.47892568  1
  C  C11  1  0.50000000  0.31553906  0.97897813  1
  C  C12  1  0.50000000  0.31557994  0.22897232  1
  C  C13  1  0.50000000  0.31564255  0.72896242  1
  C  C14  1  0.50000000  0.31560178  0.35393660  1
  C  C15  1  0.50000000  0.31565687  0.85396354  1
  C  C16  1  0.50000000  0.28547118  0.04242709  1
  C  C17  1  0.50000000  0.28547783  0.54237062  1
  C  C18  1  0.50000000  0.28554599  0.41733157  1
  C  C19  1  0.50000000  0.28560892  0.91737522  1
  C  C20  1  0.50000000  0.28554871  0.16742479  1
  C  C21  1  0.50000000  0.28561571  0.66736746  1
  C  C22  1  0.50000000  0.28557986  0.29240811  1
  C  C23  1  0.50000000  0.28566549  0.79242280  1
  C  C24  1  0.50000000  0.34621182  0.08330604  1
  C  C25  1  0.50000000  0.34623506  0.58327619  1
  C  C26  1  0.50000000  0.34617503  0.45825235  1
  C  C27  1  0.50000000  0.34621553  0.95827162  1
  C  C28  1  0.50000000  0.34625915  0.20829848  1
  C  C29  1  0.50000000  0.34631808  0.70829633  1
  C  C30  1  0.50000000  0.34627407  0.33325448  1
  C  C31  1  0.50000000  0.34633530  0.83326552  1
  C  C32  1  0.50000000  0.37708343  0.10420822  1
  C  C33  1  0.50000000  0.37710256  0.60422288  1
  C  C34  1  0.50000000  0.37698391  0.47921861  1
  C  C35  1  0.50000000  0.37704253  0.97919129  1
  C  C36  1  0.50000000  0.37713416  0.22920149  1
  C  C37  1  0.50000000  0.37721244  0.72919639  1
  C  C38  1  0.50000000  0.37712803  0.35418036  1
  C  C39  1  0.50000000  0.37720610  0.85416771  1
  C  C40  1  0.50000000  0.31549941  0.02087941  1
  C  C41  1  0.50000000  0.31548924  0.52082584  1
  C  C42  1  0.50000000  0.31559167  0.39582442  1
  C  C43  1  0.50000000  0.31564428  0.89587173  1
  C  C44  1  0.50000000  0.31558043  0.14590015  1
  C  C45  1  0.50000000  0.31564230  0.64586931  1
  C  C46  1  0.50000000  0.31560015  0.27084632  1
  C  C47  1  0.50000000  0.31569259  0.77090933  1
  C  C48  1  0.50000000  0.34616157  0.04158331  1
  C  C49  1  0.50000000  0.34615701  0.54156303  1
  C  C50  1  0.50000000  0.34624033  0.41652931  1
  C  C51  1  0.50000000  0.34628712  0.91655996  1
  C  C52  1  0.50000000  0.34625266  0.16657430  1
  C  C53  1  0.50000000  0.34630800  0.66658717  1
  C  C54  1  0.50000000  0.34627810  0.29152609  1
  C  C55  1  0.50000000  0.34635684  0.79156188  1
  C  C56  1  0.50000000  0.40779977  0.08326625  1
  C  C57  1  0.50000000  0.40780391  0.58334679  1
  C  C58  1  0.50000000  0.40769651  0.45832826  1
  C  C59  1  0.50000000  0.40777833  0.95826737  1
  C  C60  1  0.50000000  0.40789329  0.20830378  1
  C  C61  1  0.50000000  0.40793938  0.70835367  1
  C  C62  1  0.50000000  0.40789193  0.33328439  1
  C  C63  1  0.50000000  0.40795629  0.83326430  1
  C  C64  1  0.50000000  0.43848380  0.10403375  1
  C  C65  1  0.50000000  0.43849053  0.60415521  1
  C  C66  1  0.50000000  0.43828890  0.47918389  1
  C  C67  1  0.50000000  0.43840429  0.97904347  1
  C  C68  1  0.50000000  0.43854904  0.22908369  1
  C  C69  1  0.50000000  0.43862675  0.72911509  1
  C  C70  1  0.50000000  0.43851816  0.35410562  1
  C  C71  1  0.50000000  0.43859983  0.85405043  1
  C  C72  1  0.50000000  0.37699618  0.02064089  1
  C  C73  1  0.50000000  0.37698629  0.52066759  1
  C  C74  1  0.50000000  0.37710372  0.39563702  1
  C  C75  1  0.50000000  0.37715995  0.89563491  1
  C  C76  1  0.50000000  0.37710517  0.14565660  1
  C  C77  1  0.50000000  0.37716801  0.64568506  1
  C  C78  1  0.50000000  0.37714723  0.27063336  1
  C  C79  1  0.50000000  0.37723465  0.77065465  1
  C  C80  1  0.50000000  0.40771039  0.04155763  1
  C  C81  1  0.50000000  0.40769796  0.54162647  1
  C  C82  1  0.50000000  0.40780067  0.41661349  1
  C  C83  1  0.50000000  0.40786672  0.91653690  1
  C  C84  1  0.50000000  0.40786798  0.16657031  1
  C  C85  1  0.50000000  0.40792254  0.66658801  1
  C  C86  1  0.50000000  0.40790527  0.29155418  1
  C  C87  1  0.50000000  0.40796491  0.79149816  1
  C  C88  1  0.50000000  0.46916889  0.08310557  1
  C  C89  1  0.50000000  0.46923560  0.58327530  1
  C  C90  1  0.50000000  0.46898895  0.45829240  1
  C  C91  1  0.50000000  0.46915975  0.95809582  1
  C  C92  1  0.50000000  0.46929115  0.20818406  1
  C  C93  1  0.50000000  0.46944953  0.70825602  1
  C  C94  1  0.50000000  0.46926073  0.33320482  1
  C  C95  1  0.50000000  0.46946331  0.83317469  1
  C  C96  1  0.50000000  0.50006923  0.10401126  1
  C  C97  1  0.50000000  0.50011440  0.60416125  1
  C  C98  1  0.50000000  0.49965650  0.47932283  1
  C  C99  1  0.50000000  0.49992442  0.97899273  1
  C  C100  1  0.50000000  0.50016506  0.22912280  1
  C  C101  1  0.50000000  0.50024332  0.72907364  1
  C  C102  1  0.50000000  0.50008195  0.35418406  1
  C  C103  1  0.50000000  0.50021123  0.85400858  1
  C  C104  1  0.50000000  0.43833323  0.02073574  1
  C  C105  1  0.50000000  0.43832293  0.52087927  1
  C  C106  1  0.50000000  0.43847670  0.39585961  1
  C  C107  1  0.50000000  0.43855516  0.89573750  1
  C  C108  1  0.50000000  0.43850399  0.14578849  1
  C  C109  1  0.50000000  0.43856325  0.64582648  1
  C  C110  1  0.50000000  0.43856740  0.27081621  1
  C  C111  1  0.50000000  0.43864729  0.77075634  1
  C  C112  1  0.50000000  0.46903965  0.04163233  1
  C  C113  1  0.50000000  0.46905701  0.54183381  1
  C  C114  1  0.50000000  0.46914456  0.41680489  1
  C  C115  1  0.50000000  0.46930635  0.91664186  1
  C  C116  1  0.50000000  0.46923396  0.16671753  1
  C  C117  1  0.50000000  0.46942102  0.66672179  1
  C  C118  1  0.50000000  0.46929084  0.29176832  1
  C  C119  1  0.50000000  0.46946822  0.79163936  1
  C  C120  1  0.50000000  0.53069732  0.08329764  1
  C  C121  1  0.50000000  0.53065843  0.58345224  1
  C  C122  1  0.50000000  0.53039021  0.45876529  1
  C  C123  1  0.50000000  0.53058848  0.95811598  1
  C  C124  1  0.50000000  0.53084136  0.20845584  1
  C  C125  1  0.50000000  0.53091285  0.70828183  1
  C  C126  1  0.50000000  0.53075550  0.33354250  1
  C  C127  1  0.50000000  0.53094556  0.83328340  1
  C  C128  1  0.50000000  0.56072071  0.10487656  1
  C  C129  1  0.50000000  0.56169331  0.60423686  1
  C  C130  1  0.50000000  0.56005974  0.48023315  1
  C  C131  1  0.50000000  0.56117607  0.97930485  1
  C  C132  1  0.50000000  0.56090610  0.22998770  1
  C  C133  1  0.50000000  0.56177978  0.72916538  1
  C  C134  1  0.50000000  0.56075555  0.35509364  1
  C  C135  1  0.50000000  0.56177819  0.85419779  1
  C  C136  1  0.50000000  0.49973651  0.02061232  1
  C  C137  1  0.50000000  0.49980758  0.52094414  1
  C  C138  1  0.50000000  0.50005353  0.39591673  1
  C  C139  1  0.50000000  0.50018918  0.89576049  1
  C  C140  1  0.50000000  0.50006517  0.14576854  1
  C  C141  1  0.50000000  0.50015942  0.64589806  1
  C  C142  1  0.50000000  0.50016589  0.27085924  1
  C  C143  1  0.50000000  0.50025719  0.77083681  1
  C  C144  1  0.50000000  0.53047930  0.04118702  1
  C  C145  1  0.50000000  0.53045431  0.54182906  1
  C  C146  1  0.50000000  0.53065276  0.41665888  1
  C  C147  1  0.50000000  0.53075134  0.91647978  1
  C  C148  1  0.50000000  0.53073534  0.16650080  1
  C  C149  1  0.50000000  0.53089158  0.66662458  1
  C  C150  1  0.50000000  0.53084882  0.29157277  1
  C  C151  1  0.50000000  0.53093625  0.79161895  1
  C  C152  1  0.50000000  0.59244610  0.58348339  1
  C  C153  1  0.50000000  0.59280453  0.95833027  1
  C  C154  1  0.50000000  0.59253032  0.70838696  1
  C  C155  1  0.50000000  0.59261092  0.83334473  1
  C  C156  1  0.50000000  0.62316399  0.60418586  1
  C  C157  1  0.50000000  0.62303911  0.97773435  1
  C  C158  1  0.50000000  0.62320231  0.72911215  1
  C  C159  1  0.50000000  0.62318602  0.85403188  1
  C  C160  1  0.50000000  0.56018828  0.01974290  1
  C  C161  1  0.50000000  0.56102472  0.52065710  1
  C  C162  1  0.50000000  0.56071841  0.39513759  1
  C  C163  1  0.50000000  0.56178365  0.89568701  1
  C  C164  1  0.50000000  0.56071703  0.14492958  1
  C  C165  1  0.50000000  0.56171427  0.64571842  1
  C  C166  1  0.50000000  0.56091555  0.27001549  1
  C  C167  1  0.50000000  0.56178859  0.77073015  1
  C  C168  1  0.50000000  0.59265187  0.54158973  1
  C  C169  1  0.50000000  0.59255810  0.91643064  1
  C  C170  1  0.50000000  0.59255564  0.66655396  1
  C  C171  1  0.50000000  0.59254895  0.79149834  1
  C  C172  1  0.50000000  0.65400209  0.58345225  1
  C  C173  1  0.50000000  0.65389479  0.95803376  1
  C  C174  1  0.50000000  0.65410891  0.70816906  1
  C  C175  1  0.50000000  0.65419782  0.83336049  1
  C  C176  1  0.50000000  0.68508111  0.60346914  1
  C  C177  1  0.50000000  0.68424898  0.97884613  1
  C  C178  1  0.50000000  0.68478758  0.72887700  1
  C  C179  1  0.50000000  0.68496582  0.85401383  1
  C  C180  1  0.50000000  0.62285061  0.52215351  1
  C  C181  1  0.50000000  0.62326918  0.89570041  1
  C  C182  1  0.50000000  0.62312178  0.64585078  1
  C  C183  1  0.50000000  0.62321011  0.77075143  1
  C  C184  1  0.50000000  0.65371159  0.54180154  1
  C  C185  1  0.50000000  0.65413998  0.91638648  1
  C  C186  1  0.50000000  0.65416094  0.66647287  1
  C  C187  1  0.50000000  0.65411841  0.79167601  1
  C  C188  1  0.50000000  0.71461368  0.58145872  1
  C  C189  1  0.50000000  0.71431593  0.95895359  1
  C  C190  1  0.50000000  0.71469270  0.70746206  1
  C  C191  1  0.50000000  0.71477816  0.83252934  1
  C  C192  1  0.50000000  0.68399653  0.52087694  1
  C  C193  1  0.50000000  0.68518660  0.89627401  1
  C  C194  1  0.50000000  0.68492214  0.64577531  1
  C  C195  1  0.50000000  0.68479802  0.77096436  1
  C  C196  1  0.50000000  0.71409218  0.54067859  1
  C  C197  1  0.50000000  0.71476597  0.91819175  1
  C  C198  1  0.50000000  0.71474369  0.66729551  1
  C  C199  1  0.50000000  0.71471494  0.79236749  1
  H  H200  1  0.50000000  0.26162868  0.09760934  1
  H  H201  1  0.50000000  0.26167308  0.59752077  1
  H  H202  1  0.50000000  0.26158831  0.47244928  1
  H  H203  1  0.50000000  0.26163162  0.97251743  1
  H  H204  1  0.50000000  0.26158210  0.22238816  1
  H  H205  1  0.50000000  0.26160903  0.72225943  1
  H  H206  1  0.50000000  0.26162038  0.34738951  1
  H  H207  1  0.50000000  0.26166805  0.84744911  1
  H  H208  1  0.50000000  0.26150101  0.02744113  1
  H  H209  1  0.50000000  0.26149141  0.52741101  1
  H  H210  1  0.50000000  0.26169655  0.40208763  1
  H  H211  1  0.50000000  0.26174264  0.90217179  1
  H  H212  1  0.50000000  0.26160671  0.15239736  1
  H  H213  1  0.50000000  0.26163726  0.65238519  1
  H  H214  1  0.50000000  0.26161063  0.27744795  1
  H  H215  1  0.50000000  0.26170321  0.77743360  1
  H  H216  1  0.50000000  0.73881438  0.59596610  1
  H  H217  1  0.50000000  0.73789452  0.97500299  1
  H  H218  1  0.50000000  0.73864883  0.72243379  1
  H  H219  1  0.50000000  0.73873865  0.84754761  1
  H  H220  1  0.50000000  0.73759797  0.52448806  1
  H  H221  1  0.50000000  0.73892784  0.90360391  1
  H  H222  1  0.50000000  0.73872725  0.65233299  1
  H  H223  1  0.50000000  0.73863934  0.77730655  1
  H  H224  1  0.50000000  0.58477443  0.09003978  1
  H  H225  1  0.50000000  0.58348149  0.46437683  1
  H  H226  1  0.50000000  0.58481627  0.21483676  1
  H  H227  1  0.50000000  0.58470142  0.34003022  1
  H  H228  1  0.50000000  0.62404259  0.00954646  1
  H  H229  1  0.50000000  0.58362867  0.03559659  1
  H  H230  1  0.50000000  0.58472863  0.41009035  1
  H  H231  1  0.50000000  0.58463352  0.16003325  1
  H  H232  1  0.50000000  0.58481107  0.28523807  1
  H  H233  1  0.50000000  0.68355124  0.01074051  1
  H  H234  1  0.50000000  0.62385631  0.49034089  1
  H  H235  1  0.50000000  0.68322606  0.48896732  1
