# generated using pymatgen
data_HC4
_symmetry_space_group_name_H-M   'P 1'
_cell_length_a   20.00000000
_cell_length_b   40.19450000
_cell_length_c   34.53814571
_cell_angle_alpha   90.00000000
_cell_angle_beta   90.00000000
_cell_angle_gamma   90.00000000
_symmetry_Int_Tables_number   1
_chemical_formula_structural   HC4
_chemical_formula_sum   'H52 C208'
_cell_volume   27764.86995304
_cell_formula_units_Z   52
loop_
 _symmetry_equiv_pos_site_id
 _symmetry_equiv_pos_as_xyz
  1  'x, y, z'
loop_
 _atom_site_type_symbol
 _atom_site_label
 _atom_site_symmetry_multiplicity
 _atom_site_fract_x
 _atom_site_fract_y
 _atom_site_fract_z
 _atom_site_occupancy
  C  C0  1  0.50000000  0.28412600  0.08331173  1
  C  C1  1  0.50000000  0.28243148  0.58158691  1
  C  C2  1  0.50000000  0.28350733  0.45632032  1
  C  C3  1  0.50000000  0.28285420  0.95820125  1
  C  C4  1  0.50000000  0.28492089  0.20765811  1
  C  C5  1  0.50000000  0.28204706  0.70714766  1
  C  C6  1  0.50000000  0.28473029  0.33181336  1
  C  C7  1  0.50000000  0.28215640  0.83270169  1
  C  C8  1  0.50000000  0.31431637  0.10452120  1
  C  C9  1  0.50000000  0.31227458  0.60363636  1
  C  C10  1  0.50000000  0.31326541  0.47836525  1
  C  C11  1  0.50000000  0.31300404  0.97960568  1
  C  C12  1  0.50000000  0.31497616  0.22901247  1
  C  C13  1  0.50000000  0.31200496  0.72898586  1
  C  C14  1  0.50000000  0.31458021  0.35351389  1
  C  C15  1  0.50000000  0.31219501  0.85435491  1
  C  C16  1  0.50000000  0.28363267  0.04348842  1
  C  C17  1  0.50000000  0.28272771  0.54167269  1
  C  C18  1  0.50000000  0.28399908  0.41648285  1
  C  C19  1  0.50000000  0.28254361  0.91831123  1
  C  C20  1  0.50000000  0.28477399  0.16785694  1
  C  C21  1  0.50000000  0.28209494  0.66725928  1
  C  C22  1  0.50000000  0.28491752  0.29203181  1
  C  C23  1  0.50000000  0.28207961  0.79280684  1
  C  C24  1  0.50000000  0.34477716  0.08349719  1
  C  C25  1  0.50000000  0.34303301  0.58305226  1
  C  C26  1  0.50000000  0.34410097  0.45793514  1
  C  C27  1  0.50000000  0.34348025  0.95848203  1
  C  C28  1  0.50000000  0.34563135  0.20830403  1
  C  C29  1  0.50000000  0.34263592  0.70820774  1
  C  C30  1  0.50000000  0.34537674  0.33300926  1
  C  C31  1  0.50000000  0.34276711  0.83339878  1
  C  C32  1  0.50000000  0.37574664  0.10416719  1
  C  C33  1  0.50000000  0.37372499  0.60419499  1
  C  C34  1  0.50000000  0.37467189  0.47917101  1
  C  C35  1  0.50000000  0.37441813  0.97916759  1
  C  C36  1  0.50000000  0.37644581  0.22914263  1
  C  C37  1  0.50000000  0.37347220  0.72919805  1
  C  C38  1  0.50000000  0.37601718  0.35410923  1
  C  C39  1  0.50000000  0.37365848  0.85419202  1
  C  C40  1  0.50000000  0.31338749  0.02143427  1
  C  C41  1  0.50000000  0.31287959  0.52020665  1
  C  C42  1  0.50000000  0.31418800  0.39523607  1
  C  C43  1  0.50000000  0.31235844  0.89623430  1
  C  C44  1  0.50000000  0.31467229  0.14623607  1
  C  C45  1  0.50000000  0.31212049  0.64553363  1
  C  C46  1  0.50000000  0.31496329  0.27066631  1
  C  C47  1  0.50000000  0.31201292  0.77091968  1
  C  C48  1  0.50000000  0.34423461  0.04185840  1
  C  C49  1  0.50000000  0.34335612  0.54133096  1
  C  C50  1  0.50000000  0.34464489  0.41627268  1
  C  C51  1  0.50000000  0.34314154  0.91677984  1
  C  C52  1  0.50000000  0.34545389  0.16673986  1
  C  C53  1  0.50000000  0.34270723  0.66646140  1
  C  C54  1  0.50000000  0.34559235  0.29143794  1
  C  C55  1  0.50000000  0.34266390  0.79163439  1
  C  C56  1  0.50000000  0.40616886  0.08294311  1
  C  C57  1  0.50000000  0.40452468  0.58339870  1
  C  C58  1  0.50000000  0.40547516  0.45842600  1
  C  C59  1  0.50000000  0.40488442  0.95791199  1
  C  C60  1  0.50000000  0.40704054  0.20805013  1
  C  C61  1  0.50000000  0.40419885  0.70829452  1
  C  C62  1  0.50000000  0.40679599  0.33333184  1
  C  C63  1  0.50000000  0.40434029  0.83311759  1
  C  C64  1  0.50000000  0.43715917  0.10361940  1
  C  C65  1  0.50000000  0.43514322  0.60446321  1
  C  C66  1  0.50000000  0.43589040  0.47971529  1
  C  C67  1  0.50000000  0.43572334  0.97854196  1
  C  C68  1  0.50000000  0.43786523  0.22899770  1
  C  C69  1  0.50000000  0.43483451  0.72912513  1
  C  C70  1  0.50000000  0.43746340  0.35444439  1
  C  C71  1  0.50000000  0.43501749  0.85375168  1
  C  C72  1  0.50000000  0.37480206  0.02061547  1
  C  C73  1  0.50000000  0.37428863  0.52063237  1
  C  C74  1  0.50000000  0.37563003  0.39560220  1
  C  C75  1  0.50000000  0.37382795  0.89563173  1
  C  C76  1  0.50000000  0.37610411  0.14566298  1
  C  C77  1  0.50000000  0.37357989  0.64563789  1
  C  C78  1  0.50000000  0.37642870  0.27064788  1
  C  C79  1  0.50000000  0.37349005  0.77063658  1
  C  C80  1  0.50000000  0.40559892  0.04136747  1
  C  C81  1  0.50000000  0.40475172  0.54189793  1
  C  C82  1  0.50000000  0.40604883  0.41684323  1
  C  C83  1  0.50000000  0.40463542  0.91641117  1
  C  C84  1  0.50000000  0.40685903  0.16647279  1
  C  C85  1  0.50000000  0.40427951  0.66668620  1
  C  C86  1  0.50000000  0.40701611  0.29174901  1
  C  C87  1  0.50000000  0.40422587  0.79150940  1
  C  C88  1  0.50000000  0.46764821  0.08247469  1
  C  C89  1  0.50000000  0.46587302  0.58393383  1
  C  C90  1  0.50000000  0.46685469  0.45935941  1
  C  C91  1  0.50000000  0.46616847  0.95724494  1
  C  C92  1  0.50000000  0.46854225  0.20806281  1
  C  C93  1  0.50000000  0.46561785  0.70835194  1
  C  C94  1  0.50000000  0.46829189  0.33377193  1
  C  C95  1  0.50000000  0.46573657  0.83277699  1
  C  C96  1  0.50000000  0.49775752  0.10396878  1
  C  C97  1  0.50000000  0.49669526  0.60503320  1
  C  C98  1  0.50000000  0.49622144  0.48131995  1
  C  C99  1  0.50000000  0.49687077  0.97817403  1
  C  C100  1  0.50000000  0.49848057  0.22996492  1
  C  C101  1  0.50000000  0.49635817  0.72917084  1
  C  C102  1  0.50000000  0.49803039  0.35595117  1
  C  C103  1  0.50000000  0.49656449  0.85332331  1
  C  C104  1  0.50000000  0.43602041  0.02010277  1
  C  C105  1  0.50000000  0.43559093  0.52127598  1
  C  C106  1  0.50000000  0.43705503  0.39619818  1
  C  C107  1  0.50000000  0.43524288  0.89534290  1
  C  C108  1  0.50000000  0.43753653  0.14537841  1
  C  C109  1  0.50000000  0.43494448  0.64604808  1
  C  C110  1  0.50000000  0.43784902  0.27081092  1
  C  C111  1  0.50000000  0.43484723  0.77067404  1
  C  C112  1  0.50000000  0.46697724  0.04048109  1
  C  C113  1  0.50000000  0.46604916  0.54256771  1
  C  C114  1  0.50000000  0.46752841  0.41737927  1
  C  C115  1  0.50000000  0.46597222  0.91587760  1
  C  C116  1  0.50000000  0.46835782  0.16607595  1
  C  C117  1  0.50000000  0.46567414  0.66700957  1
  C  C118  1  0.50000000  0.46849781  0.29178626  1
  C  C119  1  0.50000000  0.46564384  0.79143091  1
  C  C120  1  0.50000000  0.52736016  0.58480193  1
  C  C121  1  0.50000000  0.52811695  0.95675412  1
  C  C122  1  0.50000000  0.52706786  0.70870687  1
  C  C123  1  0.50000000  0.52717845  0.83240048  1
  C  C124  1  0.50000000  0.55798037  0.60584017  1
  C  C125  1  0.50000000  0.55856971  0.97542995  1
  C  C126  1  0.50000000  0.55796370  0.72925194  1
  C  C127  1  0.50000000  0.55800329  0.85276434  1
  C  C128  1  0.50000000  0.49633776  0.01850789  1
  C  C129  1  0.50000000  0.49675905  0.52165319  1
  C  C130  1  0.50000000  0.49763711  0.39590416  1
  C  C131  1  0.50000000  0.49678510  0.89476754  1
  C  C132  1  0.50000000  0.49812718  0.14394521  1
  C  C133  1  0.50000000  0.49649646  0.64646587  1
  C  C134  1  0.50000000  0.49845255  0.26994193  1
  C  C135  1  0.50000000  0.49637337  0.77060329  1
  C  C136  1  0.50000000  0.52800810  0.54306665  1
  C  C137  1  0.50000000  0.52745412  0.91500441  1
  C  C138  1  0.50000000  0.52711698  0.66738200  1
  C  C139  1  0.50000000  0.52709038  0.79106492  1
  C  C140  1  0.50000000  0.58881734  0.58588530  1
  C  C141  1  0.50000000  0.58903924  0.95505890  1
  C  C142  1  0.50000000  0.58874389  0.70870964  1
  C  C143  1  0.50000000  0.58893556  0.83251631  1
  C  C144  1  0.50000000  0.61983252  0.60534566  1
  C  C145  1  0.50000000  0.61908446  0.97521207  1
  C  C146  1  0.50000000  0.61938568  0.72927541  1
  C  C147  1  0.50000000  0.61966482  0.85304439  1
  C  C148  1  0.50000000  0.55846709  0.52439536  1
  C  C149  1  0.50000000  0.55806270  0.89395296  1
  C  C150  1  0.50000000  0.55792897  0.64701869  1
  C  C151  1  0.50000000  0.55798186  0.77052315  1
  C  C152  1  0.50000000  0.58895160  0.54474924  1
  C  C153  1  0.50000000  0.58890220  0.91391126  1
  C  C154  1  0.50000000  0.58887054  0.66725382  1
  C  C155  1  0.50000000  0.58877603  0.79106195  1
  C  C156  1  0.50000000  0.66672840  0.08798244  1
  C  C157  1  0.50000000  0.65058980  0.58407559  1
  C  C158  1  0.50000000  0.66128415  0.45126819  1
  C  C159  1  0.50000000  0.65077192  0.95774263  1
  C  C160  1  0.50000000  0.67595986  0.20910461  1
  C  C161  1  0.50000000  0.65029294  0.70865432  1
  C  C162  1  0.50000000  0.67391948  0.33029536  1
  C  C163  1  0.50000000  0.65042449  0.83238569  1
  C  C164  1  0.50000000  0.69875732  0.10397689  1
  C  C165  1  0.50000000  0.68105203  0.60500795  1
  C  C166  1  0.50000000  0.68720324  0.47874333  1
  C  C167  1  0.50000000  0.68224939  0.97853904  1
  C  C168  1  0.50000000  0.70669205  0.22862615  1
  C  C169  1  0.50000000  0.68100396  0.72902774  1
  C  C170  1  0.50000000  0.70258800  0.35363838  1
  C  C171  1  0.50000000  0.68105798  0.85292028  1
  C  C172  1  0.50000000  0.61900151  0.52457468  1
  C  C173  1  0.50000000  0.61990955  0.89441555  1
  C  C174  1  0.50000000  0.61958962  0.64671746  1
  C  C175  1  0.50000000  0.61940630  0.77048402  1
  C  C176  1  0.50000000  0.66121513  0.04857698  1
  C  C177  1  0.50000000  0.65071917  0.54196322  1
  C  C178  1  0.50000000  0.66666397  0.41183920  1
  C  C179  1  0.50000000  0.65067081  0.91565591  1
  C  C180  1  0.50000000  0.67403076  0.16935678  1
  C  C181  1  0.50000000  0.65035918  0.66736288  1
  C  C182  1  0.50000000  0.67594614  0.29054437  1
  C  C183  1  0.50000000  0.65032911  0.79109438  1
  C  C184  1  0.50000000  0.72518489  0.07726174  1
  C  C185  1  0.50000000  0.71094948  0.58404604  1
  C  C186  1  0.50000000  0.71960431  0.46209042  1
  C  C187  1  0.50000000  0.71117376  0.95572078  1
  C  C188  1  0.50000000  0.73560642  0.20558117  1
  C  C189  1  0.50000000  0.71099064  0.70780887  1
  C  C190  1  0.50000000  0.73353369  0.33451882  1
  C  C191  1  0.50000000  0.71105643  0.83174969  1
  C  C192  1  0.50000000  0.68708045  0.02099504  1
  C  C193  1  0.50000000  0.68225798  0.52119528  1
  C  C194  1  0.50000000  0.69865588  0.39573983  1
  C  C195  1  0.50000000  0.68112731  0.89473497  1
  C  C196  1  0.50000000  0.70272866  0.14607408  1
  C  C197  1  0.50000000  0.68098522  0.64680180  1
  C  C198  1  0.50000000  0.70669756  0.27108421  1
  C  C199  1  0.50000000  0.68102195  0.77071015  1
  C  C200  1  0.50000000  0.71950949  0.03755152  1
  C  C201  1  0.50000000  0.71116490  0.54403907  1
  C  C202  1  0.50000000  0.72516355  0.42235173  1
  C  C203  1  0.50000000  0.71100769  0.91571942  1
  C  C204  1  0.50000000  0.73365619  0.16523832  1
  C  C205  1  0.50000000  0.71097972  0.66797581  1
  C  C206  1  0.50000000  0.73556928  0.29419654  1
  C  C207  1  0.50000000  0.71102912  0.79189840  1
  H  H208  1  0.50000000  0.26036462  0.09862915  1
  H  H209  1  0.50000000  0.25832209  0.59627675  1
  H  H210  1  0.50000000  0.25935149  0.47086885  1
  H  H211  1  0.50000000  0.25896233  0.97335065  1
  H  H212  1  0.50000000  0.26106854  0.22276668  1
  H  H213  1  0.50000000  0.25805392  0.72204581  1
  H  H214  1  0.50000000  0.26072315  0.34657259  1
  H  H215  1  0.50000000  0.25820432  0.84772567  1
  H  H216  1  0.50000000  0.25945520  0.02901999  1
  H  H217  1  0.50000000  0.25882562  0.52651671  1
  H  H218  1  0.50000000  0.26025209  0.40112953  1
  H  H219  1  0.50000000  0.25837584  0.90379595  1
  H  H220  1  0.50000000  0.26083275  0.15294117  1
  H  H221  1  0.50000000  0.25810331  0.65235106  1
  H  H222  1  0.50000000  0.26103817  0.27700956  1
  H  H223  1  0.50000000  0.25800868  0.77806544  1
  H  H224  1  0.50000000  0.75098452  0.08747101  1
  H  H225  1  0.50000000  0.73487654  0.59900989  1
  H  H226  1  0.50000000  0.74187456  0.48017331  1
  H  H227  1  0.50000000  0.73555101  0.96954908  1
  H  H228  1  0.50000000  0.76022682  0.21917487  1
  H  H229  1  0.50000000  0.73495611  0.72272058  1
  H  H230  1  0.50000000  0.75664000  0.35129796  1
  H  H231  1  0.50000000  0.73495413  0.84681129  1
  H  H232  1  0.50000000  0.74170397  0.01932965  1
  H  H233  1  0.50000000  0.73553354  0.53020160  1
  H  H234  1  0.50000000  0.75092484  0.41198405  1
  H  H235  1  0.50000000  0.73500270  0.90090723  1
  H  H236  1  0.50000000  0.75675699  0.14842680  1
  H  H237  1  0.50000000  0.73493692  0.65304926  1
  H  H238  1  0.50000000  0.76025504  0.28078688  1
  H  H239  1  0.50000000  0.73491668  0.77681444  1
  H  H240  1  0.50000000  0.52170486  0.08888539  1
  H  H241  1  0.50000000  0.51983798  0.46589314  1
  H  H242  1  0.50000000  0.52256814  0.21519761  1
  H  H243  1  0.50000000  0.52223792  0.34147162  1
  H  H244  1  0.50000000  0.56000164  0.00708046  1
  H  H245  1  0.50000000  0.51995065  0.03394456  1
  H  H246  1  0.50000000  0.52161073  0.41091144  1
  H  H247  1  0.50000000  0.52228954  0.15854642  1
  H  H248  1  0.50000000  0.52248163  0.28484229  1
  H  H249  1  0.50000000  0.61586120  0.00615393  1
  H  H250  1  0.50000000  0.55989875  0.49276675  1
  H  H251  1  0.50000000  0.64457639  0.10624843  1
  H  H252  1  0.50000000  0.63538872  0.45931972  1
  H  H253  1  0.50000000  0.65251146  0.22493374  1
  H  H254  1  0.50000000  0.64908370  0.34298605  1
  H  H255  1  0.50000000  0.61563049  0.49364983  1
  H  H256  1  0.50000000  0.63521892  0.04091442  1
  H  H257  1  0.50000000  0.64447878  0.39363797  1
  H  H258  1  0.50000000  0.64924428  0.15653047  1
  H  H259  1  0.50000000  0.65259645  0.27451616  1
