# generated using pymatgen
data_H9C52
_symmetry_space_group_name_H-M   'P 1'
_cell_length_a   20.00000000
_cell_length_b   40.19450000
_cell_length_c   34.55534128
_cell_angle_alpha   90.00000000
_cell_angle_beta   90.00000000
_cell_angle_gamma   90.00000000
_symmetry_Int_Tables_number   1
_chemical_formula_structural   H9C52
_chemical_formula_sum   'H36 C208'
_cell_volume   27778.69330175
_cell_formula_units_Z   4
loop_
 _symmetry_equiv_pos_site_id
 _symmetry_equiv_pos_as_xyz
  1  'x, y, z'
loop_
 _atom_site_type_symbol
 _atom_site_label
 _atom_site_symmetry_multiplicity
 _atom_site_fract_x
 _atom_site_fract_y
 _atom_site_fract_z
 _atom_site_occupancy
  C  C0  1  0.50000000  0.28390353  0.58800810  1
  C  C1  1  0.50000000  0.28230624  0.95153792  1
  C  C2  1  0.50000000  0.28624075  0.70864549  1
  C  C3  1  0.50000000  0.28600696  0.83067573  1
  C  C4  1  0.50000000  0.31509552  0.60620222  1
  C  C5  1  0.50000000  0.31147960  0.97288606  1
  C  C6  1  0.50000000  0.31648211  0.72922390  1
  C  C7  1  0.50000000  0.31590618  0.85208432  1
  C  C8  1  0.50000000  0.28234426  0.54832540  1
  C  C9  1  0.50000000  0.28385237  0.91186830  1
  C  C10  1  0.50000000  0.28605966  0.66908536  1
  C  C11  1  0.50000000  0.28623124  0.79111054  1
  C  C12  1  0.50000000  0.34827165  0.08511368  1
  C  C13  1  0.50000000  0.34542516  0.58436881  1
  C  C14  1  0.50000000  0.34792797  0.45409779  1
  C  C15  1  0.50000000  0.34403356  0.95716862  1
  C  C16  1  0.50000000  0.34757797  0.20785342  1
  C  C17  1  0.50000000  0.34700010  0.70870179  1
  C  C18  1  0.50000000  0.34773172  0.33165627  1
  C  C19  1  0.50000000  0.34672207  0.83247489  1
  C  C20  1  0.50000000  0.37823891  0.10564029  1
  C  C21  1  0.50000000  0.37675114  0.60451539  1
  C  C22  1  0.50000000  0.37652435  0.47840154  1
  C  C23  1  0.50000000  0.37535623  0.97953574  1
  C  C24  1  0.50000000  0.37769675  0.22916784  1
  C  C25  1  0.50000000  0.37781370  0.72933585  1
  C  C26  1  0.50000000  0.37794312  0.35290951  1
  C  C27  1  0.50000000  0.37727232  0.85395495  1
  C  C28  1  0.50000000  0.31154923  0.52704156  1
  C  C29  1  0.50000000  0.31502866  0.89365037  1
  C  C30  1  0.50000000  0.31597828  0.64775978  1
  C  C31  1  0.50000000  0.31649155  0.77060493  1
  C  C32  1  0.50000000  0.34791704  0.04575253  1
  C  C33  1  0.50000000  0.34408767  0.54273567  1
  C  C34  1  0.50000000  0.34828633  0.41473149  1
  C  C35  1  0.50000000  0.34535849  0.91551536  1
  C  C36  1  0.50000000  0.34770327  0.16819181  1
  C  C37  1  0.50000000  0.34676893  0.66741839  1
  C  C38  1  0.50000000  0.34760930  0.29200485  1
  C  C39  1  0.50000000  0.34698477  0.79118517  1
  C  C40  1  0.50000000  0.40818178  0.08372343  1
  C  C41  1  0.50000000  0.40722617  0.58309013  1
  C  C42  1  0.50000000  0.40764900  0.45797964  1
  C  C43  1  0.50000000  0.40642927  0.95883410  1
  C  C44  1  0.50000000  0.40835401  0.20860736  1
  C  C45  1  0.50000000  0.40824868  0.70829466  1
  C  C46  1  0.50000000  0.40849220  0.33267076  1
  C  C47  1  0.50000000  0.40800077  0.83339228  1
  C  C48  1  0.50000000  0.43892029  0.10439177  1
  C  C49  1  0.50000000  0.43815301  0.60379608  1
  C  C50  1  0.50000000  0.43832458  0.47902733  1
  C  C51  1  0.50000000  0.43782011  0.97940276  1
  C  C52  1  0.50000000  0.43903299  0.22931073  1
  C  C53  1  0.50000000  0.43878319  0.72914043  1
  C  C54  1  0.50000000  0.43895578  0.35405543  1
  C  C55  1  0.50000000  0.43846396  0.85450527  1
  C  C56  1  0.50000000  0.37652626  0.02150177  1
  C  C57  1  0.50000000  0.37538728  0.52037968  1
  C  C58  1  0.50000000  0.37825956  0.39422763  1
  C  C59  1  0.50000000  0.37671314  0.89540407  1
  C  C60  1  0.50000000  0.37793353  0.14696037  1
  C  C61  1  0.50000000  0.37732382  0.64596595  1
  C  C62  1  0.50000000  0.37770388  0.27066515  1
  C  C63  1  0.50000000  0.37780864  0.77059270  1
  C  C64  1  0.50000000  0.40765122  0.04191320  1
  C  C65  1  0.50000000  0.40646073  0.54108245  1
  C  C66  1  0.50000000  0.40819226  0.41616549  1
  C  C67  1  0.50000000  0.40718182  0.91684493  1
  C  C68  1  0.50000000  0.40848749  0.16719466  1
  C  C69  1  0.50000000  0.40803632  0.66655266  1
  C  C70  1  0.50000000  0.40835306  0.29125373  1
  C  C71  1  0.50000000  0.40823266  0.79165187  1
  C  C72  1  0.50000000  0.46940035  0.08318107  1
  C  C73  1  0.50000000  0.46911584  0.58294199  1
  C  C74  1  0.50000000  0.46925281  0.45825415  1
  C  C75  1  0.50000000  0.46894190  0.95848522  1
  C  C76  1  0.50000000  0.46950582  0.20820239  1
  C  C77  1  0.50000000  0.46944025  0.70807696  1
  C  C78  1  0.50000000  0.46951346  0.33318632  1
  C  C79  1  0.50000000  0.46934560  0.83359999  1
  C  C80  1  0.50000000  0.50000391  0.10407172  1
  C  C81  1  0.50000000  0.50000166  0.60369726  1
  C  C82  1  0.50000000  0.49999194  0.47913511  1
  C  C83  1  0.50000000  0.49999151  0.97919384  1
  C  C84  1  0.50000000  0.49999650  0.22913834  1
  C  C85  1  0.50000000  0.50000683  0.72906030  1
  C  C86  1  0.50000000  0.49999823  0.35419536  1
  C  C87  1  0.50000000  0.49999538  0.85449796  1
  C  C88  1  0.50000000  0.43831804  0.02086151  1
  C  C89  1  0.50000000  0.43783639  0.52049223  1
  C  C90  1  0.50000000  0.43893008  0.39548927  1
  C  C91  1  0.50000000  0.43812505  0.89616269  1
  C  C92  1  0.50000000  0.43895376  0.14581469  1
  C  C93  1  0.50000000  0.43850383  0.64545893  1
  C  C94  1  0.50000000  0.43903400  0.27056131  1
  C  C95  1  0.50000000  0.43877167  0.77082635  1
  C  C96  1  0.50000000  0.46925437  0.04164496  1
  C  C97  1  0.50000000  0.46894874  0.54142261  1
  C  C98  1  0.50000000  0.46940795  0.41671367  1
  C  C99  1  0.50000000  0.46911221  0.91697679  1
  C  C100  1  0.50000000  0.46951362  0.16668439  1
  C  C101  1  0.50000000  0.46934496  0.66645036  1
  C  C102  1  0.50000000  0.46950873  0.29166464  1
  C  C103  1  0.50000000  0.46942153  0.79194991  1
  C  C104  1  0.50000000  0.53059861  0.08317821  1
  C  C105  1  0.50000000  0.53087652  0.58293213  1
  C  C106  1  0.50000000  0.53072926  0.45825143  1
  C  C107  1  0.50000000  0.53104748  0.95849791  1
  C  C108  1  0.50000000  0.53048870  0.20820359  1
  C  C109  1  0.50000000  0.53056560  0.70806818  1
  C  C110  1  0.50000000  0.53048098  0.33318643  1
  C  C111  1  0.50000000  0.53065695  0.83360721  1
  C  C112  1  0.50000000  0.56107386  0.10439831  1
  C  C113  1  0.50000000  0.56184321  0.60378896  1
  C  C114  1  0.50000000  0.56166492  0.47903751  1
  C  C115  1  0.50000000  0.56216002  0.97945251  1
  C  C116  1  0.50000000  0.56096309  0.22931095  1
  C  C117  1  0.50000000  0.56121816  0.72913992  1
  C  C118  1  0.50000000  0.56103451  0.35406754  1
  C  C119  1  0.50000000  0.56153752  0.85452030  1
  C  C120  1  0.50000000  0.49999763  0.02077379  1
  C  C121  1  0.50000000  0.50000252  0.52072303  1
  C  C122  1  0.50000000  0.49999434  0.39579339  1
  C  C123  1  0.50000000  0.49999389  0.89622985  1
  C  C124  1  0.50000000  0.50000075  0.14567347  1
  C  C125  1  0.50000000  0.49999624  0.64552454  1
  C  C126  1  0.50000000  0.49999631  0.27071852  1
  C  C127  1  0.50000000  0.50000899  0.77099473  1
  C  C128  1  0.50000000  0.53076003  0.04161761  1
  C  C129  1  0.50000000  0.53104724  0.54142847  1
  C  C130  1  0.50000000  0.53058321  0.41669403  1
  C  C131  1  0.50000000  0.53088583  0.91699079  1
  C  C132  1  0.50000000  0.53048430  0.16668890  1
  C  C133  1  0.50000000  0.53064872  0.66643907  1
  C  C134  1  0.50000000  0.53048453  0.29166684  1
  C  C135  1  0.50000000  0.53058293  0.79196242  1
  C  C136  1  0.50000000  0.59181691  0.08373916  1
  C  C137  1  0.50000000  0.59277820  0.58308917  1
  C  C138  1  0.50000000  0.59234245  0.45798446  1
  C  C139  1  0.50000000  0.59355453  0.95885052  1
  C  C140  1  0.50000000  0.59164265  0.20861167  1
  C  C141  1  0.50000000  0.59174659  0.70829294  1
  C  C142  1  0.50000000  0.59149782  0.33267855  1
  C  C143  1  0.50000000  0.59198796  0.83339356  1
  C  C144  1  0.50000000  0.62175585  0.10566139  1
  C  C145  1  0.50000000  0.62323857  0.60450786  1
  C  C146  1  0.50000000  0.62347160  0.47841026  1
  C  C147  1  0.50000000  0.62463159  0.97953909  1
  C  C148  1  0.50000000  0.62229771  0.22917568  1
  C  C149  1  0.50000000  0.62218731  0.72932992  1
  C  C150  1  0.50000000  0.62204782  0.35291480  1
  C  C151  1  0.50000000  0.62272110  0.85395398  1
  C  C152  1  0.50000000  0.56169089  0.02087490  1
  C  C153  1  0.50000000  0.56215988  0.52049373  1
  C  C154  1  0.50000000  0.56106874  0.39549246  1
  C  C155  1  0.50000000  0.56187272  0.89617805  1
  C  C156  1  0.50000000  0.56104233  0.14581916  1
  C  C157  1  0.50000000  0.56149495  0.64546009  1
  C  C158  1  0.50000000  0.56095956  0.27056247  1
  C  C159  1  0.50000000  0.56122520  0.77082888  1
  C  C160  1  0.50000000  0.59235482  0.04192777  1
  C  C161  1  0.50000000  0.59353616  0.54108377  1
  C  C162  1  0.50000000  0.59180011  0.41616459  1
  C  C163  1  0.50000000  0.59281420  0.91685599  1
  C  C164  1  0.50000000  0.59151155  0.16720210  1
  C  C165  1  0.50000000  0.59195734  0.66655578  1
  C  C166  1  0.50000000  0.59163835  0.29125877  1
  C  C167  1  0.50000000  0.59176218  0.79165828  1
  C  C168  1  0.50000000  0.65172455  0.08512867  1
  C  C169  1  0.50000000  0.65457089  0.58436744  1
  C  C170  1  0.50000000  0.65206903  0.45409551  1
  C  C171  1  0.50000000  0.65595361  0.95717758  1
  C  C172  1  0.50000000  0.65242045  0.20787037  1
  C  C173  1  0.50000000  0.65300601  0.70870095  1
  C  C174  1  0.50000000  0.65226145  0.33166296  1
  C  C175  1  0.50000000  0.65327852  0.83248386  1
  C  C176  1  0.50000000  0.68490225  0.60619594  1
  C  C177  1  0.50000000  0.68850519  0.97289569  1
  C  C178  1  0.50000000  0.68351791  0.72922486  1
  C  C179  1  0.50000000  0.68409559  0.85209483  1
  C  C180  1  0.50000000  0.62347474  0.02150419  1
  C  C181  1  0.50000000  0.62460155  0.52037571  1
  C  C182  1  0.50000000  0.62173140  0.39422907  1
  C  C183  1  0.50000000  0.62328054  0.89541046  1
  C  C184  1  0.50000000  0.62206817  0.14697898  1
  C  C185  1  0.50000000  0.62267547  0.64596049  1
  C  C186  1  0.50000000  0.62228882  0.27067115  1
  C  C187  1  0.50000000  0.62219235  0.77059278  1
  C  C188  1  0.50000000  0.65207605  0.04577108  1
  C  C189  1  0.50000000  0.65590950  0.54273562  1
  C  C190  1  0.50000000  0.65171187  0.41472707  1
  C  C191  1  0.50000000  0.65463144  0.91552445  1
  C  C192  1  0.50000000  0.65229680  0.16821095  1
  C  C193  1  0.50000000  0.65323179  0.66741527  1
  C  C194  1  0.50000000  0.65238468  0.29201233  1
  C  C195  1  0.50000000  0.65301875  0.79119577  1
  C  C196  1  0.50000000  0.71609193  0.58800154  1
  C  C197  1  0.50000000  0.71768159  0.95155579  1
  C  C198  1  0.50000000  0.71375228  0.70864540  1
  C  C199  1  0.50000000  0.71398855  0.83067852  1
  C  C200  1  0.50000000  0.68844881  0.52703596  1
  C  C201  1  0.50000000  0.68496742  0.89366767  1
  C  C202  1  0.50000000  0.68402263  0.64775561  1
  C  C203  1  0.50000000  0.68350786  0.77060951  1
  C  C204  1  0.50000000  0.71765017  0.54832130  1
  C  C205  1  0.50000000  0.71614417  0.91188020  1
  C  C206  1  0.50000000  0.71393533  0.66908444  1
  C  C207  1  0.50000000  0.71376872  0.79111405  1
  H  H208  1  0.50000000  0.26092428  0.60463698  1
  H  H209  1  0.50000000  0.25833718  0.96663803  1
  H  H210  1  0.50000000  0.26237116  0.72365454  1
  H  H211  1  0.50000000  0.26187441  0.84501602  1
  H  H212  1  0.50000000  0.25843622  0.53305185  1
  H  H213  1  0.50000000  0.26080474  0.89535183  1
  H  H214  1  0.50000000  0.26198243  0.65460049  1
  H  H215  1  0.50000000  0.26241111  0.77597216  1
  H  H216  1  0.50000000  0.73906304  0.60463889  1
  H  H217  1  0.50000000  0.74166248  0.96663175  1
  H  H218  1  0.50000000  0.73761203  0.72366474  1
  H  H219  1  0.50000000  0.73813031  0.84501056  1
  H  H220  1  0.50000000  0.74155732  0.53305462  1
  H  H221  1  0.50000000  0.73918765  0.89535476  1
  H  H222  1  0.50000000  0.73802404  0.65461714  1
  H  H223  1  0.50000000  0.73758145  0.77596953  1
  H  H224  1  0.50000000  0.30610774  0.00316043  1
  H  H225  1  0.50000000  0.32428045  0.09990887  1
  H  H226  1  0.50000000  0.32310737  0.46484967  1
  H  H227  1  0.50000000  0.32367583  0.22289375  1
  H  H228  1  0.50000000  0.32379835  0.34652822  1
  H  H229  1  0.50000000  0.30623441  0.49678239  1
  H  H230  1  0.50000000  0.32314386  0.03485862  1
  H  H231  1  0.50000000  0.32431223  0.39986102  1
  H  H232  1  0.50000000  0.32384332  0.15314027  1
  H  H233  1  0.50000000  0.32365922  0.27708728  1
  H  H234  1  0.50000000  0.67572212  0.09992043  1
  H  H235  1  0.50000000  0.67688858  0.46484895  1
  H  H236  1  0.50000000  0.67631988  0.22292135  1
  H  H237  1  0.50000000  0.67619109  0.34654001  1
  H  H238  1  0.50000000  0.69386955  0.00317202  1
  H  H239  1  0.50000000  0.67685411  0.03487715  1
  H  H240  1  0.50000000  0.67568496  0.39984475  1
  H  H241  1  0.50000000  0.67616196  0.15317047  1
  H  H242  1  0.50000000  0.67633648  0.27709769  1
  H  H243  1  0.50000000  0.69377883  0.49677756  1
