# generated using pymatgen
data_HC4
_symmetry_space_group_name_H-M   'P 1'
_cell_length_a   20.00000000
_cell_length_b   40.19450000
_cell_length_c   34.55624322
_cell_angle_alpha   90.00000000
_cell_angle_beta   90.00000000
_cell_angle_gamma   90.00000000
_symmetry_Int_Tables_number   1
_chemical_formula_structural   HC4
_chemical_formula_sum   'H52 C208'
_cell_volume   27779.41836186
_cell_formula_units_Z   52
loop_
 _symmetry_equiv_pos_site_id
 _symmetry_equiv_pos_as_xyz
  1  'x, y, z'
loop_
 _atom_site_type_symbol
 _atom_site_label
 _atom_site_symmetry_multiplicity
 _atom_site_fract_x
 _atom_site_fract_y
 _atom_site_fract_z
 _atom_site_occupancy
  C  C0  1  0.50000000  0.28312933  0.08031024  1
  C  C1  1  0.50000000  0.28672801  0.58360411  1
  C  C2  1  0.50000000  0.28428468  0.45940297  1
  C  C3  1  0.50000000  0.28622474  0.95589879  1
  C  C4  1  0.50000000  0.28110670  0.20651620  1
  C  C5  1  0.50000000  0.28727715  0.70762087  1
  C  C6  1  0.50000000  0.28149027  0.33330578  1
  C  C7  1  0.50000000  0.28726018  0.83203600  1
  C  C8  1  0.50000000  0.31254975  0.10293970  1
  C  C9  1  0.50000000  0.31700900  0.60443602  1
  C  C10  1  0.50000000  0.31480955  0.48008890  1
  C  C11  1  0.50000000  0.31590988  0.97790148  1
  C  C12  1  0.50000000  0.31080533  0.22885066  1
  C  C13  1  0.50000000  0.31722924  0.72896934  1
  C  C14  1  0.50000000  0.31165236  0.35484132  1
  C  C15  1  0.50000000  0.31718740  0.85349295  1
  C  C16  1  0.50000000  0.28427906  0.04044778  1
  C  C17  1  0.50000000  0.28621585  0.54384866  1
  C  C18  1  0.50000000  0.28310550  0.41954870  1
  C  C19  1  0.50000000  0.28675341  0.91615197  1
  C  C20  1  0.50000000  0.28154832  0.16652301  1
  C  C21  1  0.50000000  0.28727011  0.66778027  1
  C  C22  1  0.50000000  0.28107415  0.29329811  1
  C  C23  1  0.50000000  0.28724430  0.79217888  1
  C  C24  1  0.50000000  0.34358599  0.08278385  1
  C  C25  1  0.50000000  0.34743541  0.58348743  1
  C  C26  1  0.50000000  0.34490756  0.45870965  1
  C  C27  1  0.50000000  0.34700908  0.95785037  1
  C  C28  1  0.50000000  0.34147721  0.20808381  1
  C  C29  1  0.50000000  0.34783458  0.70826071  1
  C  C30  1  0.50000000  0.34195373  0.33356263  1
  C  C31  1  0.50000000  0.34788065  0.83306751  1
  C  C32  1  0.50000000  0.37381707  0.10442557  1
  C  C33  1  0.50000000  0.37858624  0.60402151  1
  C  C34  1  0.50000000  0.37625766  0.47913094  1
  C  C35  1  0.50000000  0.37765731  0.97929153  1
  C  C36  1  0.50000000  0.37206741  0.22930177  1
  C  C37  1  0.50000000  0.37860871  0.72915493  1
  C  C38  1  0.50000000  0.37296320  0.35408090  1
  C  C39  1  0.50000000  0.37864566  0.85414900  1
  C  C40  1  0.50000000  0.31480084  0.01971375  1
  C  C41  1  0.50000000  0.31592439  0.52188978  1
  C  C42  1  0.50000000  0.31250507  0.39687525  1
  C  C43  1  0.50000000  0.31703219  0.89531570  1
  C  C44  1  0.50000000  0.31169618  0.14497072  1
  C  C45  1  0.50000000  0.31716846  0.64626539  1
  C  C46  1  0.50000000  0.31080453  0.27100581  1
  C  C47  1  0.50000000  0.31721882  0.77083426  1
  C  C48  1  0.50000000  0.34492592  0.04107514  1
  C  C49  1  0.50000000  0.34700724  0.54192718  1
  C  C50  1  0.50000000  0.34355273  0.41701409  1
  C  C51  1  0.50000000  0.34745122  0.91627721  1
  C  C52  1  0.50000000  0.34198547  0.16628108  1
  C  C53  1  0.50000000  0.34787301  0.66669431  1
  C  C54  1  0.50000000  0.34148306  0.29174788  1
  C  C55  1  0.50000000  0.34783907  0.79151283  1
  C  C56  1  0.50000000  0.40491146  0.08407822  1
  C  C57  1  0.50000000  0.40911536  0.58298653  1
  C  C58  1  0.50000000  0.40649300  0.45759456  1
  C  C59  1  0.50000000  0.40910510  0.95894425  1
  C  C60  1  0.50000000  0.40291866  0.20877230  1
  C  C61  1  0.50000000  0.40914582  0.70829190  1
  C  C62  1  0.50000000  0.40323061  0.33241509  1
  C  C63  1  0.50000000  0.40916525  0.83316251  1
  C  C64  1  0.50000000  0.43442951  0.10636551  1
  C  C65  1  0.50000000  0.43969950  0.60428689  1
  C  C66  1  0.50000000  0.43792194  0.47757686  1
  C  C67  1  0.50000000  0.43964035  0.98006370  1
  C  C68  1  0.50000000  0.43349381  0.22926412  1
  C  C69  1  0.50000000  0.43973686  0.72916225  1
  C  C70  1  0.50000000  0.43399080  0.35222273  1
  C  C71  1  0.50000000  0.43979953  0.85383801  1
  C  C72  1  0.50000000  0.37629347  0.02064665  1
  C  C73  1  0.50000000  0.37764138  0.52047864  1
  C  C74  1  0.50000000  0.37379157  0.39539709  1
  C  C75  1  0.50000000  0.37859541  0.89573888  1
  C  C76  1  0.50000000  0.37299202  0.14575351  1
  C  C77  1  0.50000000  0.37863498  0.64560143  1
  C  C78  1  0.50000000  0.37207116  0.27047926  1
  C  C79  1  0.50000000  0.37860934  0.77060270  1
  C  C80  1  0.50000000  0.40654882  0.04220655  1
  C  C81  1  0.50000000  0.40909128  0.54081873  1
  C  C82  1  0.50000000  0.40488695  0.41573807  1
  C  C83  1  0.50000000  0.40913123  0.91675538  1
  C  C84  1  0.50000000  0.40325830  0.16742487  1
  C  C85  1  0.50000000  0.40916122  0.66658159  1
  C  C86  1  0.50000000  0.40290378  0.29106742  1
  C  C87  1  0.50000000  0.40914838  0.79145568  1
  C  C88  1  0.50000000  0.46477511  0.08657701  1
  C  C89  1  0.50000000  0.47056003  0.58393968  1
  C  C90  1  0.50000000  0.46609046  0.45264895  1
  C  C91  1  0.50000000  0.47089455  0.95766255  1
  C  C92  1  0.50000000  0.46380950  0.20846471  1
  C  C93  1  0.50000000  0.47049842  0.70846407  1
  C  C94  1  0.50000000  0.46409069  0.33098093  1
  C  C95  1  0.50000000  0.47047007  0.83263076  1
  C  C96  1  0.50000000  0.50111003  0.60551016  1
  C  C97  1  0.50000000  0.50261519  0.97404453  1
  C  C98  1  0.50000000  0.50121124  0.72915224  1
  C  C99  1  0.50000000  0.50121079  0.85285055  1
  C  C100  1  0.50000000  0.43801370  0.02224230  1
  C  C101  1  0.50000000  0.43961925  0.51971447  1
  C  C102  1  0.50000000  0.43442527  0.39347734  1
  C  C103  1  0.50000000  0.43970853  0.89542994  1
  C  C104  1  0.50000000  0.43401927  0.14763116  1
  C  C105  1  0.50000000  0.43978627  0.64589081  1
  C  C106  1  0.50000000  0.43349989  0.27061590  1
  C  C107  1  0.50000000  0.43974538  0.77058514  1
  C  C108  1  0.50000000  0.46618759  0.04723290  1
  C  C109  1  0.50000000  0.47090935  0.54205010  1
  C  C110  1  0.50000000  0.46476625  0.41331095  1
  C  C111  1  0.50000000  0.47055515  0.91577564  1
  C  C112  1  0.50000000  0.46410888  0.16892531  1
  C  C113  1  0.50000000  0.47044970  0.66710727  1
  C  C114  1  0.50000000  0.46381184  0.29145419  1
  C  C115  1  0.50000000  0.47050268  0.79127173  1
  C  C116  1  0.50000000  0.53241251  0.58648700  1
  C  C117  1  0.50000000  0.53266467  0.95400428  1
  C  C118  1  0.50000000  0.53205456  0.70869291  1
  C  C119  1  0.50000000  0.53206696  0.83220251  1
  C  C120  1  0.50000000  0.56330851  0.60623440  1
  C  C121  1  0.50000000  0.56289983  0.97478752  1
  C  C122  1  0.50000000  0.56298727  0.72923870  1
  C  C123  1  0.50000000  0.56316517  0.85236958  1
  C  C124  1  0.50000000  0.50264705  0.52566205  1
  C  C125  1  0.50000000  0.50111896  0.89422067  1
  C  C126  1  0.50000000  0.50119761  0.64688132  1
  C  C127  1  0.50000000  0.50121172  0.77055025  1
  C  C128  1  0.50000000  0.53268197  0.54574113  1
  C  C129  1  0.50000000  0.53241361  0.91325369  1
  C  C130  1  0.50000000  0.53205761  0.66749713  1
  C  C131  1  0.50000000  0.53204993  0.79100539  1
  C  C132  1  0.50000000  0.59381826  0.58504163  1
  C  C133  1  0.50000000  0.59340157  0.95638165  1
  C  C134  1  0.50000000  0.59383473  0.70881316  1
  C  C135  1  0.50000000  0.59390335  0.83223037  1
  C  C136  1  0.50000000  0.62426692  0.10402076  1
  C  C137  1  0.50000000  0.62459445  0.60527206  1
  C  C138  1  0.50000000  0.62531248  0.48148449  1
  C  C139  1  0.50000000  0.62472255  0.97805724  1
  C  C140  1  0.50000000  0.62357110  0.23001077  1
  C  C141  1  0.50000000  0.62462025  0.72929634  1
  C  C142  1  0.50000000  0.62400240  0.35592692  1
  C  C143  1  0.50000000  0.62459053  0.85332300  1
  C  C144  1  0.50000000  0.56293135  0.52498771  1
  C  C145  1  0.50000000  0.56330401  0.89349343  1
  C  C146  1  0.50000000  0.56316119  0.64734379  1
  C  C147  1  0.50000000  0.56298570  0.77047658  1
  C  C148  1  0.50000000  0.59342939  0.54338278  1
  C  C149  1  0.50000000  0.59380800  0.91471906  1
  C  C150  1  0.50000000  0.59390147  0.66750430  1
  C  C151  1  0.50000000  0.59384521  0.79091551  1
  C  C152  1  0.50000000  0.65446341  0.08246082  1
  C  C153  1  0.50000000  0.65555072  0.58410079  1
  C  C154  1  0.50000000  0.65494216  0.45946248  1
  C  C155  1  0.50000000  0.65554901  0.95723029  1
  C  C156  1  0.50000000  0.65362185  0.20805970  1
  C  C157  1  0.50000000  0.65549354  0.70845661  1
  C  C158  1  0.50000000  0.65386090  0.33372422  1
  C  C159  1  0.50000000  0.65551500  0.83275372  1
  C  C160  1  0.50000000  0.68488735  0.10351736  1
  C  C161  1  0.50000000  0.68612344  0.60448219  1
  C  C162  1  0.50000000  0.68590013  0.47968944  1
  C  C163  1  0.50000000  0.68607811  0.97828290  1
  C  C164  1  0.50000000  0.68424032  0.22888025  1
  C  C165  1  0.50000000  0.68615345  0.72901516  1
  C  C166  1  0.50000000  0.68463871  0.35427501  1
  C  C167  1  0.50000000  0.68616459  0.85346808  1
  C  C168  1  0.50000000  0.62529887  0.01829836  1
  C  C169  1  0.50000000  0.62475145  0.52171823  1
  C  C170  1  0.50000000  0.62432830  0.39574616  1
  C  C171  1  0.50000000  0.62458419  0.89450008  1
  C  C172  1  0.50000000  0.62392223  0.14385767  1
  C  C173  1  0.50000000  0.62459584  0.64644532  1
  C  C174  1  0.50000000  0.62359657  0.26984785  1
  C  C175  1  0.50000000  0.62461885  0.77043715  1
  C  C176  1  0.50000000  0.65493287  0.04031546  1
  C  C177  1  0.50000000  0.65557300  0.54254310  1
  C  C178  1  0.50000000  0.65449289  0.41734223  1
  C  C179  1  0.50000000  0.65553871  0.91566848  1
  C  C180  1  0.50000000  0.65379179  0.16602877  1
  C  C181  1  0.50000000  0.65552877  0.66701727  1
  C  C182  1  0.50000000  0.65367255  0.29171200  1
  C  C183  1  0.50000000  0.65546703  0.79131966  1
  C  C184  1  0.50000000  0.71521804  0.08209785  1
  C  C185  1  0.50000000  0.71618878  0.58277082  1
  C  C186  1  0.50000000  0.71570514  0.45742544  1
  C  C187  1  0.50000000  0.71622604  0.95671290  1
  C  C188  1  0.50000000  0.71438947  0.20717387  1
  C  C189  1  0.50000000  0.71612682  0.70756334  1
  C  C190  1  0.50000000  0.71460534  0.33223358  1
  C  C191  1  0.50000000  0.71615533  0.83203703  1
  C  C192  1  0.50000000  0.68587551  0.02006483  1
  C  C193  1  0.50000000  0.68609018  0.52146829  1
  C  C194  1  0.50000000  0.68493293  0.39622462  1
  C  C195  1  0.50000000  0.68611321  0.89528541  1
  C  C196  1  0.50000000  0.68454545  0.14542541  1
  C  C197  1  0.50000000  0.68617057  0.64629153  1
  C  C198  1  0.50000000  0.68426276  0.27082777  1
  C  C199  1  0.50000000  0.68613612  0.77079015  1
  C  C200  1  0.50000000  0.71567766  0.04232943  1
  C  C201  1  0.50000000  0.71622936  0.54303138  1
  C  C202  1  0.50000000  0.71525106  0.41766011  1
  C  C203  1  0.50000000  0.71619460  0.91696420  1
  C  C204  1  0.50000000  0.71453828  0.16741929  1
  C  C205  1  0.50000000  0.71614909  0.66772607  1
  C  C206  1  0.50000000  0.71442267  0.29248460  1
  C  C207  1  0.50000000  0.71613013  0.79219874  1
  H  H208  1  0.50000000  0.25875351  0.09440176  1
  H  H209  1  0.50000000  0.26302601  0.59905377  1
  H  H210  1  0.50000000  0.26075630  0.47522378  1
  H  H211  1  0.50000000  0.26202068  0.97027126  1
  H  H212  1  0.50000000  0.25693061  0.22104450  1
  H  H213  1  0.50000000  0.26333080  0.72253925  1
  H  H214  1  0.50000000  0.25768180  0.34864089  1
  H  H215  1  0.50000000  0.26332743  0.84698222  1
  H  H216  1  0.50000000  0.26071959  0.02468485  1
  H  H217  1  0.50000000  0.26205738  0.52935337  1
  H  H218  1  0.50000000  0.25867839  0.40560588  1
  H  H219  1  0.50000000  0.26301244  0.90078495  1
  H  H220  1  0.50000000  0.25767728  0.15134975  1
  H  H221  1  0.50000000  0.26325405  0.65303908  1
  H  H222  1  0.50000000  0.25697424  0.27858373  1
  H  H223  1  0.50000000  0.26331548  0.77718972  1
  H  H224  1  0.50000000  0.73899082  0.09744652  1
  H  H225  1  0.50000000  0.74015628  0.59767789  1
  H  H226  1  0.50000000  0.73987361  0.47192333  1
  H  H227  1  0.50000000  0.74015723  0.97173716  1
  H  H228  1  0.50000000  0.73834758  0.22214616  1
  H  H229  1  0.50000000  0.74007940  0.72248434  1
  H  H230  1  0.50000000  0.73873732  0.34679683  1
  H  H231  1  0.50000000  0.74005401  0.84710367  1
  H  H232  1  0.50000000  0.73978918  0.02770325  1
  H  H233  1  0.50000000  0.74019120  0.52808147  1
  H  H234  1  0.50000000  0.73907686  0.40243911  1
  H  H235  1  0.50000000  0.74010145  0.90190044  1
  H  H236  1  0.50000000  0.73861363  0.15268779  1
  H  H237  1  0.50000000  0.74011138  0.65282727  1
  H  H238  1  0.50000000  0.73837537  0.27749526  1
  H  H239  1  0.50000000  0.74004089  0.77716360  1
  H  H240  1  0.50000000  0.48834216  0.10219794  1
  H  H241  1  0.50000000  0.49122784  0.46258275  1
  H  H242  1  0.50000000  0.48748294  0.22387319  1
  H  H243  1  0.50000000  0.48801583  0.34584855  1
  H  H244  1  0.50000000  0.50697945  0.00446845  1
  H  H245  1  0.50000000  0.49138660  0.03744910  1
  H  H246  1  0.50000000  0.48842156  0.39787045  1
  H  H247  1  0.50000000  0.48807273  0.15413446  1
  H  H248  1  0.50000000  0.48756115  0.27621703  1
  H  H249  1  0.50000000  0.56125525  0.00640385  1
  H  H250  1  0.50000000  0.50706567  0.49522249  1
  H  H251  1  0.50000000  0.60035768  0.08891735  1
  H  H252  1  0.50000000  0.60163396  0.46611602  1
  H  H253  1  0.50000000  0.59953787  0.21516374  1
  H  H254  1  0.50000000  0.59986006  0.34136801  1
  H  H255  1  0.50000000  0.56128119  0.49339705  1
  H  H256  1  0.50000000  0.60166486  0.03375325  1
  H  H257  1  0.50000000  0.60038562  0.41074964  1
  H  H258  1  0.50000000  0.59984763  0.15859273  1
  H  H259  1  0.50000000  0.59962432  0.28484071  1
