# generated using pymatgen
data_H17C104
_symmetry_space_group_name_H-M   'P 1'
_cell_length_a   20.00000000
_cell_length_b   40.19450000
_cell_length_c   34.37831152
_cell_angle_alpha   90.00000000
_cell_angle_beta   90.00000000
_cell_angle_gamma   90.00000000
_symmetry_Int_Tables_number   1
_chemical_formula_structural   H17C104
_chemical_formula_sum   'H34 C208'
_cell_volume   27636.38084392
_cell_formula_units_Z   2
loop_
 _symmetry_equiv_pos_site_id
 _symmetry_equiv_pos_as_xyz
  1  'x, y, z'
loop_
 _atom_site_type_symbol
 _atom_site_label
 _atom_site_symmetry_multiplicity
 _atom_site_fract_x
 _atom_site_fract_y
 _atom_site_fract_z
 _atom_site_occupancy
  C  C0  1  0.50000000  0.28524897  0.58228139  1
  C  C1  1  0.50000000  0.28522331  0.95790400  1
  C  C2  1  0.50000000  0.28542032  0.70741505  1
  C  C3  1  0.50000000  0.28538840  0.83251349  1
  C  C4  1  0.50000000  0.31515424  0.60356828  1
  C  C5  1  0.50000000  0.31522166  0.97813562  1
  C  C6  1  0.50000000  0.31535403  0.72888516  1
  C  C7  1  0.50000000  0.31528341  0.85399556  1
  C  C8  1  0.50000000  0.28538851  0.54181004  1
  C  C9  1  0.50000000  0.28516232  0.91743901  1
  C  C10  1  0.50000000  0.28543239  0.66731015  1
  C  C11  1  0.50000000  0.28539452  0.79241207  1
  C  C12  1  0.50000000  0.34606838  0.58303930  1
  C  C13  1  0.50000000  0.34586408  0.95835909  1
  C  C14  1  0.50000000  0.34603144  0.70819722  1
  C  C15  1  0.50000000  0.34596541  0.83338948  1
  C  C16  1  0.50000000  0.37814489  0.10476954  1
  C  C17  1  0.50000000  0.37700184  0.60412353  1
  C  C18  1  0.50000000  0.37865969  0.48013452  1
  C  C19  1  0.50000000  0.37743980  0.97911896  1
  C  C20  1  0.50000000  0.37803573  0.22992689  1
  C  C21  1  0.50000000  0.37692972  0.72916035  1
  C  C22  1  0.50000000  0.37817148  0.35509504  1
  C  C23  1  0.50000000  0.37695209  0.85425808  1
  C  C24  1  0.50000000  0.31540809  0.52163341  1
  C  C25  1  0.50000000  0.31510540  0.89621408  1
  C  C26  1  0.50000000  0.31533416  0.64582959  1
  C  C27  1  0.50000000  0.31534687  0.77098260  1
  C  C28  1  0.50000000  0.34601995  0.54148628  1
  C  C29  1  0.50000000  0.34599222  0.91680197  1
  C  C30  1  0.50000000  0.34600339  0.66650428  1
  C  C31  1  0.50000000  0.34601620  0.79169482  1
  C  C32  1  0.50000000  0.40802015  0.08326150  1
  C  C33  1  0.50000000  0.40781483  0.58356664  1
  C  C34  1  0.50000000  0.40823982  0.45891955  1
  C  C35  1  0.50000000  0.40794160  0.95805058  1
  C  C36  1  0.50000000  0.40795081  0.20845951  1
  C  C37  1  0.50000000  0.40760402  0.70836699  1
  C  C38  1  0.50000000  0.40804606  0.33365925  1
  C  C39  1  0.50000000  0.40758847  0.83336031  1
  C  C40  1  0.50000000  0.43868013  0.10394432  1
  C  C41  1  0.50000000  0.43846465  0.60434954  1
  C  C42  1  0.50000000  0.43898512  0.47949538  1
  C  C43  1  0.50000000  0.43865007  0.97888269  1
  C  C44  1  0.50000000  0.43865336  0.22914459  1
  C  C45  1  0.50000000  0.43831103  0.72916274  1
  C  C46  1  0.50000000  0.43873519  0.35431580  1
  C  C47  1  0.50000000  0.43836870  0.85401058  1
  C  C48  1  0.50000000  0.37852693  0.01974835  1
  C  C49  1  0.50000000  0.37756909  0.52075227  1
  C  C50  1  0.50000000  0.37821946  0.39524774  1
  C  C51  1  0.50000000  0.37695237  0.89576363  1
  C  C52  1  0.50000000  0.37813681  0.14492880  1
  C  C53  1  0.50000000  0.37698538  0.64563347  1
  C  C54  1  0.50000000  0.37804062  0.27011173  1
  C  C55  1  0.50000000  0.37691866  0.77074185  1
  C  C56  1  0.50000000  0.40811869  0.04100415  1
  C  C57  1  0.50000000  0.40801596  0.54184396  1
  C  C58  1  0.50000000  0.40811238  0.41668229  1
  C  C59  1  0.50000000  0.40776096  0.91632606  1
  C  C60  1  0.50000000  0.40801915  0.16634126  1
  C  C61  1  0.50000000  0.40761229  0.66654022  1
  C  C62  1  0.50000000  0.40796575  0.29154672  1
  C  C63  1  0.50000000  0.40759037  0.79153621  1
  C  C64  1  0.50000000  0.46958490  0.08305175  1
  C  C65  1  0.50000000  0.46934439  0.58352791  1
  C  C66  1  0.50000000  0.46969408  0.45855646  1
  C  C67  1  0.50000000  0.46942000  0.95797759  1
  C  C68  1  0.50000000  0.46953698  0.20824984  1
  C  C69  1  0.50000000  0.46917079  0.70835534  1
  C  C70  1  0.50000000  0.46960393  0.33340601  1
  C  C71  1  0.50000000  0.46917509  0.83314374  1
  C  C72  1  0.50000000  0.50011927  0.10383638  1
  C  C73  1  0.50000000  0.49995380  0.60431283  1
  C  C74  1  0.50000000  0.50021497  0.47935048  1
  C  C75  1  0.50000000  0.50003620  0.97879112  1
  C  C76  1  0.50000000  0.50008777  0.22903334  1
  C  C77  1  0.50000000  0.49987069  0.72909879  1
  C  C78  1  0.50000000  0.50013898  0.35420432  1
  C  C79  1  0.50000000  0.49989169  0.85388176  1
  C  C80  1  0.50000000  0.43888635  0.02043372  1
  C  C81  1  0.50000000  0.43873666  0.52103131  1
  C  C82  1  0.50000000  0.43874753  0.39599604  1
  C  C83  1  0.50000000  0.43842240  0.89555619  1
  C  C84  1  0.50000000  0.43869349  0.14564735  1
  C  C85  1  0.50000000  0.43839632  0.64589668  1
  C  C86  1  0.50000000  0.43865853  0.27084083  1
  C  C87  1  0.50000000  0.43830283  0.77074886  1
  C  C88  1  0.50000000  0.46962095  0.04136911  1
  C  C89  1  0.50000000  0.46948936  0.54193946  1
  C  C90  1  0.50000000  0.46964367  0.41688217  1
  C  C91  1  0.50000000  0.46930174  0.91638376  1
  C  C92  1  0.50000000  0.46957100  0.16655099  1
  C  C93  1  0.50000000  0.46919431  0.66677333  1
  C  C94  1  0.50000000  0.46955203  0.29171102  1
  C  C95  1  0.50000000  0.46915870  0.79155962  1
  C  C96  1  0.50000000  0.53086034  0.08301979  1
  C  C97  1  0.50000000  0.53069242  0.58350451  1
  C  C98  1  0.50000000  0.53090821  0.45848393  1
  C  C99  1  0.50000000  0.53068843  0.95796657  1
  C  C100  1  0.50000000  0.53080249  0.20817066  1
  C  C101  1  0.50000000  0.53061517  0.70832835  1
  C  C102  1  0.50000000  0.53085334  0.33336440  1
  C  C103  1  0.50000000  0.53061085  0.83310440  1
  C  C104  1  0.50000000  0.56165647  0.10385291  1
  C  C105  1  0.50000000  0.56143858  0.60436661  1
  C  C106  1  0.50000000  0.56160888  0.47935196  1
  C  C107  1  0.50000000  0.56146086  0.97882690  1
  C  C108  1  0.50000000  0.56152100  0.22901792  1
  C  C109  1  0.50000000  0.56144241  0.72915205  1
  C  C110  1  0.50000000  0.56159342  0.35418153  1
  C  C111  1  0.50000000  0.56144263  0.85391992  1
  C  C112  1  0.50000000  0.50015885  0.02058056  1
  C  C113  1  0.50000000  0.50009607  0.52113061  1
  C  C114  1  0.50000000  0.50016073  0.39609763  1
  C  C115  1  0.50000000  0.49992393  0.89559905  1
  C  C116  1  0.50000000  0.50010446  0.14573476  1
  C  C117  1  0.50000000  0.49990745  0.64602728  1
  C  C118  1  0.50000000  0.50009024  0.27089798  1
  C  C119  1  0.50000000  0.49986239  0.77081342  1
  C  C120  1  0.50000000  0.53086669  0.04144217  1
  C  C121  1  0.50000000  0.53073710  0.54195256  1
  C  C122  1  0.50000000  0.53088731  0.41691261  1
  C  C123  1  0.50000000  0.53066231  0.91640752  1
  C  C124  1  0.50000000  0.53083783  0.16654949  1
  C  C125  1  0.50000000  0.53062304  0.66679725  1
  C  C126  1  0.50000000  0.53081030  0.29174308  1
  C  C127  1  0.50000000  0.53060870  0.79157052  1
  C  C128  1  0.50000000  0.59216721  0.08309823  1
  C  C129  1  0.50000000  0.59210341  0.58357430  1
  C  C130  1  0.50000000  0.59221732  0.45855285  1
  C  C131  1  0.50000000  0.59196546  0.95802829  1
  C  C132  1  0.50000000  0.59205999  0.20821325  1
  C  C133  1  0.50000000  0.59215606  0.70844177  1
  C  C134  1  0.50000000  0.59210356  0.33338634  1
  C  C135  1  0.50000000  0.59212669  0.83318755  1
  C  C136  1  0.50000000  0.62309895  0.10393577  1
  C  C137  1  0.50000000  0.62279381  0.60443157  1
  C  C138  1  0.50000000  0.62291172  0.47943307  1
  C  C139  1  0.50000000  0.62272845  0.97889933  1
  C  C140  1  0.50000000  0.62289515  0.22913013  1
  C  C141  1  0.50000000  0.62289931  0.72920687  1
  C  C142  1  0.50000000  0.62297688  0.35427311  1
  C  C143  1  0.50000000  0.62284026  0.85402253  1
  C  C144  1  0.50000000  0.56157557  0.02056677  1
  C  C145  1  0.50000000  0.56150165  0.52108254  1
  C  C146  1  0.50000000  0.56165853  0.39605862  1
  C  C147  1  0.50000000  0.56140949  0.89552891  1
  C  C148  1  0.50000000  0.56159036  0.14573083  1
  C  C149  1  0.50000000  0.56145580  0.64597776  1
  C  C150  1  0.50000000  0.56152285  0.27088409  1
  C  C151  1  0.50000000  0.56143891  0.77074416  1
  C  C152  1  0.50000000  0.59220026  0.04133781  1
  C  C153  1  0.50000000  0.59200921  0.54185930  1
  C  C154  1  0.50000000  0.59215108  0.41680216  1
  C  C155  1  0.50000000  0.59207557  0.91631167  1
  C  C156  1  0.50000000  0.59211390  0.16651427  1
  C  C157  1  0.50000000  0.59213541  0.66671188  1
  C  C158  1  0.50000000  0.59205650  0.29169069  1
  C  C159  1  0.50000000  0.59215076  0.79145959  1
  C  C160  1  0.50000000  0.65381548  0.08336692  1
  C  C161  1  0.50000000  0.65362784  0.58351964  1
  C  C162  1  0.50000000  0.65394002  0.45887055  1
  C  C163  1  0.50000000  0.65329767  0.95792018  1
  C  C164  1  0.50000000  0.65358645  0.20848240  1
  C  C165  1  0.50000000  0.65379361  0.70826927  1
  C  C166  1  0.50000000  0.65362811  0.33354041  1
  C  C167  1  0.50000000  0.65379350  0.83333318  1
  C  C168  1  0.50000000  0.68360886  0.10490044  1
  C  C169  1  0.50000000  0.68446861  0.60379777  1
  C  C170  1  0.50000000  0.68346498  0.48005236  1
  C  C171  1  0.50000000  0.68392188  0.97892445  1
  C  C172  1  0.50000000  0.68346361  0.22989293  1
  C  C173  1  0.50000000  0.68447806  0.72893003  1
  C  C174  1  0.50000000  0.68351842  0.35488748  1
  C  C175  1  0.50000000  0.68448925  0.85414910  1
  C  C176  1  0.50000000  0.62288181  0.02042189  1
  C  C177  1  0.50000000  0.62276161  0.52095621  1
  C  C178  1  0.50000000  0.62305464  0.39594380  1
  C  C179  1  0.50000000  0.62277150  0.89545322  1
  C  C180  1  0.50000000  0.62299494  0.14563166  1
  C  C181  1  0.50000000  0.62284591  0.64587024  1
  C  C182  1  0.50000000  0.62289784  0.27079834  1
  C  C183  1  0.50000000  0.62290093  0.77070690  1
  C  C184  1  0.50000000  0.65392926  0.04105659  1
  C  C185  1  0.50000000  0.65332522  0.54195173  1
  C  C186  1  0.50000000  0.65376385  0.41656550  1
  C  C187  1  0.50000000  0.65361314  0.91635593  1
  C  C188  1  0.50000000  0.65363785  0.16639847  1
  C  C189  1  0.50000000  0.65378918  0.66657187  1
  C  C190  1  0.50000000  0.65358549  0.29145941  1
  C  C191  1  0.50000000  0.65379922  0.79163642  1
  C  C192  1  0.50000000  0.71455135  0.58192395  1
  C  C193  1  0.50000000  0.71439075  0.95793722  1
  C  C194  1  0.50000000  0.71447449  0.70733783  1
  C  C195  1  0.50000000  0.71449024  0.83256679  1
  C  C196  1  0.50000000  0.68344203  0.01983417  1
  C  C197  1  0.50000000  0.68395323  0.52094892  1
  C  C198  1  0.50000000  0.68356808  0.39505697  1
  C  C199  1  0.50000000  0.68446627  0.89610722  1
  C  C200  1  0.50000000  0.68353554  0.14507177  1
  C  C201  1  0.50000000  0.68448367  0.64574964  1
  C  C202  1  0.50000000  0.68346369  0.27004874  1
  C  C203  1  0.50000000  0.68447643  0.77095916  1
  C  C204  1  0.50000000  0.71441163  0.54198008  1
  C  C205  1  0.50000000  0.71454496  0.91799438  1
  C  C206  1  0.50000000  0.71448729  0.66731232  1
  C  C207  1  0.50000000  0.71447405  0.79254515  1
  H  H208  1  0.50000000  0.26129384  0.59727964  1
  H  H209  1  0.50000000  0.26160480  0.97382154  1
  H  H210  1  0.50000000  0.26142396  0.72233691  1
  H  H211  1  0.50000000  0.26140661  0.84748507  1
  H  H212  1  0.50000000  0.26177716  0.52587533  1
  H  H213  1  0.50000000  0.26125495  0.90233040  1
  H  H214  1  0.50000000  0.26144322  0.65236599  1
  H  H215  1  0.50000000  0.26141446  0.77745774  1
  H  H216  1  0.50000000  0.73853076  0.59687910  1
  H  H217  1  0.50000000  0.73789790  0.97413970  1
  H  H218  1  0.50000000  0.73847033  0.72225908  1
  H  H219  1  0.50000000  0.73844799  0.84757453  1
  H  H220  1  0.50000000  0.73795741  0.52586899  1
  H  H221  1  0.50000000  0.73853758  0.90307363  1
  H  H222  1  0.50000000  0.73845476  0.65231804  1
  H  H223  1  0.50000000  0.73845550  0.77758915  1
  H  H224  1  0.50000000  0.31436269  0.00991676  1
  H  H225  1  0.50000000  0.35407061  0.08997950  1
  H  H226  1  0.50000000  0.35529944  0.46422137  1
  H  H227  1  0.50000000  0.35405603  0.21490043  1
  H  H228  1  0.50000000  0.35419707  0.34011515  1
  H  H229  1  0.50000000  0.31461675  0.48984559  1
  H  H230  1  0.50000000  0.35514392  0.03564427  1
  H  H231  1  0.50000000  0.35419926  0.41014504  1
  H  H232  1  0.50000000  0.35419108  0.15998648  1
  H  H233  1  0.50000000  0.35408360  0.28518823  1
  H  H234  1  0.50000000  0.70761171  0.09001433  1
  H  H235  1  0.50000000  0.70753563  0.46526017  1
  H  H236  1  0.50000000  0.70738164  0.21481209  1
  H  H237  1  0.50000000  0.70743115  0.33983689  1
  H  H238  1  0.50000000  0.70751984  0.03461797  1
  H  H239  1  0.50000000  0.70753405  0.41004064  1
  H  H240  1  0.50000000  0.70742858  0.16019381  1
  H  H241  1  0.50000000  0.70738123  0.28512004  1
