# generated using pymatgen
data_H9C52
_symmetry_space_group_name_H-M   'P 1'
_cell_length_a   20.00000000
_cell_length_b   40.19450000
_cell_length_c   34.48218311
_cell_angle_alpha   90.00000000
_cell_angle_beta   90.00000000
_cell_angle_gamma   90.00000000
_symmetry_Int_Tables_number   1
_chemical_formula_structural   H9C52
_chemical_formula_sum   'H36 C208'
_cell_volume   27719.88218004
_cell_formula_units_Z   4
loop_
 _symmetry_equiv_pos_site_id
 _symmetry_equiv_pos_as_xyz
  1  'x, y, z'
loop_
 _atom_site_type_symbol
 _atom_site_label
 _atom_site_symmetry_multiplicity
 _atom_site_fract_x
 _atom_site_fract_y
 _atom_site_fract_z
 _atom_site_occupancy
  C  C0  1  0.50000000  0.28499020  0.08154386  1
  C  C1  1  0.50000000  0.28601683  0.58301544  1
  C  C2  1  0.50000000  0.28523716  0.45815387  1
  C  C3  1  0.50000000  0.28591513  0.95677694  1
  C  C4  1  0.50000000  0.28437570  0.20699868  1
  C  C5  1  0.50000000  0.28637766  0.70768919  1
  C  C6  1  0.50000000  0.28445335  0.33269479  1
  C  C7  1  0.50000000  0.28631497  0.83221597  1
  C  C8  1  0.50000000  0.31479228  0.10350181  1
  C  C9  1  0.50000000  0.31614432  0.60438626  1
  C  C10  1  0.50000000  0.31539190  0.47954169  1
  C  C11  1  0.50000000  0.31582686  0.97845471  1
  C  C12  1  0.50000000  0.31423543  0.22891040  1
  C  C13  1  0.50000000  0.31646859  0.72910296  1
  C  C14  1  0.50000000  0.31447750  0.35437987  1
  C  C15  1  0.50000000  0.31635029  0.85376256  1
  C  C16  1  0.50000000  0.28531552  0.04163914  1
  C  C17  1  0.50000000  0.28583576  0.54315485  1
  C  C18  1  0.50000000  0.28492862  0.41823731  1
  C  C19  1  0.50000000  0.28607008  0.91690448  1
  C  C20  1  0.50000000  0.28452181  0.16704737  1
  C  C21  1  0.50000000  0.28629001  0.66783924  1
  C  C22  1  0.50000000  0.28435864  0.29273834  1
  C  C23  1  0.50000000  0.28636947  0.79236309  1
  C  C24  1  0.50000000  0.34555671  0.08291052  1
  C  C25  1  0.50000000  0.34673210  0.58355800  1
  C  C26  1  0.50000000  0.34589211  0.45863242  1
  C  C27  1  0.50000000  0.34663010  0.95795836  1
  C  C28  1  0.50000000  0.34489591  0.20814199  1
  C  C29  1  0.50000000  0.34709625  0.70838130  1
  C  C30  1  0.50000000  0.34502594  0.33344578  1
  C  C31  1  0.50000000  0.34708309  0.83321304  1
  C  C32  1  0.50000000  0.37620373  0.10398030  1
  C  C33  1  0.50000000  0.37769116  0.60431341  1
  C  C34  1  0.50000000  0.37683893  0.47946141  1
  C  C35  1  0.50000000  0.37735524  0.97902179  1
  C  C36  1  0.50000000  0.37562568  0.22914395  1
  C  C37  1  0.50000000  0.37798179  0.72924864  1
  C  C38  1  0.50000000  0.37584684  0.35440545  1
  C  C39  1  0.50000000  0.37790325  0.85419284  1
  C  C40  1  0.50000000  0.31545584  0.02025571  1
  C  C41  1  0.50000000  0.31572564  0.52139273  1
  C  C42  1  0.50000000  0.31474115  0.39631198  1
  C  C43  1  0.50000000  0.31622104  0.89557567  1
  C  C44  1  0.50000000  0.31454893  0.14542047  1
  C  C45  1  0.50000000  0.31628999  0.64622217  1
  C  C46  1  0.50000000  0.31423037  0.27086917  1
  C  C47  1  0.50000000  0.31646981  0.77094023  1
  C  C48  1  0.50000000  0.34595969  0.04120095  1
  C  C49  1  0.50000000  0.34652487  0.54192609  1
  C  C50  1  0.50000000  0.34549361  0.41691892  1
  C  C51  1  0.50000000  0.34682667  0.91635162  1
  C  C52  1  0.50000000  0.34507868  0.16637501  1
  C  C53  1  0.50000000  0.34703324  0.66676881  1
  C  C54  1  0.50000000  0.34487149  0.29166718  1
  C  C55  1  0.50000000  0.34711649  0.79160836  1
  C  C56  1  0.50000000  0.40697116  0.08306497  1
  C  C57  1  0.50000000  0.40836722  0.58327215  1
  C  C58  1  0.50000000  0.40738765  0.45841609  1
  C  C59  1  0.50000000  0.40825432  0.95827015  1
  C  C60  1  0.50000000  0.40626011  0.20815050  1
  C  C61  1  0.50000000  0.40866764  0.70829033  1
  C  C62  1  0.50000000  0.40638275  0.33333005  1
  C  C63  1  0.50000000  0.40869262  0.83336462  1
  C  C64  1  0.50000000  0.43741275  0.10406641  1
  C  C65  1  0.50000000  0.43919939  0.60395091  1
  C  C66  1  0.50000000  0.43822655  0.47908180  1
  C  C67  1  0.50000000  0.43886375  0.97919570  1
  C  C68  1  0.50000000  0.43680612  0.22910974  1
  C  C69  1  0.50000000  0.43932597  0.72910269  1
  C  C70  1  0.50000000  0.43705085  0.35416421  1
  C  C71  1  0.50000000  0.43930179  0.85426716  1
  C  C72  1  0.50000000  0.37692573  0.02041619  1
  C  C73  1  0.50000000  0.37725697  0.52086526  1
  C  C74  1  0.50000000  0.37614368  0.39586543  1
  C  C75  1  0.50000000  0.37778103  0.89560062  1
  C  C76  1  0.50000000  0.37590207  0.14544041  1
  C  C77  1  0.50000000  0.37783846  0.64575536  1
  C  C78  1  0.50000000  0.37560802  0.27068184  1
  C  C79  1  0.50000000  0.37799253  0.77070957  1
  C  C80  1  0.50000000  0.40746915  0.04145557  1
  C  C81  1  0.50000000  0.40816158  0.54163023  1
  C  C82  1  0.50000000  0.40690717  0.41679656  1
  C  C83  1  0.50000000  0.40845788  0.91663846  1
  C  C84  1  0.50000000  0.40642851  0.16652190  1
  C  C85  1  0.50000000  0.40863976  0.66656073  1
  C  C86  1  0.50000000  0.40623462  0.29169283  1
  C  C87  1  0.50000000  0.40868916  0.79163834  1
  C  C88  1  0.50000000  0.46817735  0.08332604  1
  C  C89  1  0.50000000  0.46993326  0.58295033  1
  C  C90  1  0.50000000  0.46874841  0.45804914  1
  C  C91  1  0.50000000  0.46990235  0.95846518  1
  C  C92  1  0.50000000  0.46741818  0.20822579  1
  C  C93  1  0.50000000  0.47004233  0.70809435  1
  C  C94  1  0.50000000  0.46754048  0.33310655  1
  C  C95  1  0.50000000  0.47012807  0.83340947  1
  C  C96  1  0.50000000  0.49852609  0.10456521  1
  C  C97  1  0.50000000  0.50097478  0.60364799  1
  C  C98  1  0.50000000  0.49975976  0.47880165  1
  C  C99  1  0.50000000  0.50070081  0.97952727  1
  C  C100  1  0.50000000  0.49792051  0.22930564  1
  C  C101  1  0.50000000  0.50068908  0.72904807  1
  C  C102  1  0.50000000  0.49823262  0.35382739  1
  C  C103  1  0.50000000  0.50084770  0.85439612  1
  C  C104  1  0.50000000  0.43831880  0.02079062  1
  C  C105  1  0.50000000  0.43876395  0.52069112  1
  C  C106  1  0.50000000  0.43734861  0.39578894  1
  C  C107  1  0.50000000  0.43927788  0.89594183  1
  C  C108  1  0.50000000  0.43709676  0.14567901  1
  C  C109  1  0.50000000  0.43924841  0.64563370  1
  C  C110  1  0.50000000  0.43679187  0.27073478  1
  C  C111  1  0.50000000  0.43933847  0.77079764  1
  C  C112  1  0.50000000  0.46883848  0.04181698  1
  C  C113  1  0.50000000  0.46981582  0.54142595  1
  C  C114  1  0.50000000  0.46811075  0.41654785  1
  C  C115  1  0.50000000  0.47000875  0.91693958  1
  C  C116  1  0.50000000  0.46757692  0.16673998  1
  C  C117  1  0.50000000  0.47008147  0.66647803  1
  C  C118  1  0.50000000  0.46740346  0.29161513  1
  C  C119  1  0.50000000  0.47006385  0.79179694  1
  C  C120  1  0.50000000  0.52935722  0.08403356  1
  C  C121  1  0.50000000  0.53163713  0.58285039  1
  C  C122  1  0.50000000  0.53020036  0.45758133  1
  C  C123  1  0.50000000  0.53205281  0.95901553  1
  C  C124  1  0.50000000  0.52867893  0.20876147  1
  C  C125  1  0.50000000  0.53125762  0.70816361  1
  C  C126  1  0.50000000  0.52866786  0.33240700  1
  C  C127  1  0.50000000  0.53139779  0.83333201  1
  C  C128  1  0.50000000  0.55912458  0.10612277  1
  C  C129  1  0.50000000  0.56240146  0.60418131  1
  C  C130  1  0.50000000  0.56143883  0.47789841  1
  C  C131  1  0.50000000  0.56282299  0.98001169  1
  C  C132  1  0.50000000  0.55937133  0.22921966  1
  C  C133  1  0.50000000  0.56196902  0.72915670  1
  C  C134  1  0.50000000  0.55930333  0.35253272  1
  C  C135  1  0.50000000  0.56222815  0.85403385  1
  C  C136  1  0.50000000  0.49984676  0.02105311  1
  C  C137  1  0.50000000  0.50060931  0.52034430  1
  C  C138  1  0.50000000  0.49845158  0.39527271  1
  C  C139  1  0.50000000  0.50103279  0.89622162  1
  C  C140  1  0.50000000  0.49826976  0.14601056  1
  C  C141  1  0.50000000  0.50079210  0.64547390  1
  C  C142  1  0.50000000  0.49791653  0.27052864  1
  C  C143  1  0.50000000  0.50069474  0.77080790  1
  C  C144  1  0.50000000  0.53031768  0.04224522  1
  C  C145  1  0.50000000  0.53194782  0.54084014  1
  C  C146  1  0.50000000  0.52928008  0.41580195  1
  C  C147  1  0.50000000  0.53170412  0.91699674  1
  C  C148  1  0.50000000  0.52869388  0.16743136  1
  C  C149  1  0.50000000  0.53136437  0.66649514  1
  C  C150  1  0.50000000  0.52867998  0.29107423  1
  C  C151  1  0.50000000  0.53127266  0.79167211  1
  C  C152  1  0.50000000  0.58922318  0.08592139  1
  C  C153  1  0.50000000  0.59331825  0.58401295  1
  C  C154  1  0.50000000  0.58986077  0.45326837  1
  C  C155  1  0.50000000  0.59401816  0.95766174  1
  C  C156  1  0.50000000  0.58959597  0.20807967  1
  C  C157  1  0.50000000  0.59264916  0.70852170  1
  C  C158  1  0.50000000  0.58961991  0.33143409  1
  C  C159  1  0.50000000  0.59285837  0.83287107  1
  C  C160  1  0.50000000  0.62387596  0.60541938  1
  C  C161  1  0.50000000  0.62564814  0.97399751  1
  C  C162  1  0.50000000  0.62327346  0.72924908  1
  C  C163  1  0.50000000  0.62359556  0.85304377  1
  C  C164  1  0.50000000  0.56158448  0.02192903  1
  C  C165  1  0.50000000  0.56274021  0.51981610  1
  C  C166  1  0.50000000  0.55907164  0.39373031  1
  C  C167  1  0.50000000  0.56243302  0.89557264  1
  C  C168  1  0.50000000  0.55933796  0.14732664  1
  C  C169  1  0.50000000  0.56217349  0.64574288  1
  C  C170  1  0.50000000  0.55938324  0.27060970  1
  C  C171  1  0.50000000  0.56197862  0.77065709  1
  C  C172  1  0.50000000  0.59000131  0.04659530  1
  C  C173  1  0.50000000  0.59404468  0.54206646  1
  C  C174  1  0.50000000  0.58917532  0.41393390  1
  C  C175  1  0.50000000  0.59335255  0.91572451  1
  C  C176  1  0.50000000  0.58964550  0.16843177  1
  C  C177  1  0.50000000  0.59278303  0.66690785  1
  C  C178  1  0.50000000  0.58960542  0.29178134  1
  C  C179  1  0.50000000  0.59268155  0.79125655  1
  C  C180  1  0.50000000  0.65544362  0.58636406  1
  C  C181  1  0.50000000  0.65600945  0.95428045  1
  C  C182  1  0.50000000  0.65425505  0.70872954  1
  C  C183  1  0.50000000  0.65457769  0.83230266  1
  C  C184  1  0.50000000  0.68630815  0.60620377  1
  C  C185  1  0.50000000  0.68625160  0.97527064  1
  C  C186  1  0.50000000  0.68492775  0.72911165  1
  C  C187  1  0.50000000  0.68567856  0.85199577  1
  C  C188  1  0.50000000  0.62567992  0.52572070  1
  C  C189  1  0.50000000  0.62395302  0.89436540  1
  C  C190  1  0.50000000  0.62351380  0.64674161  1
  C  C191  1  0.50000000  0.62328675  0.77052472  1
  C  C192  1  0.50000000  0.65596865  0.54554342  1
  C  C193  1  0.50000000  0.65553732  0.91343787  1
  C  C194  1  0.50000000  0.65449456  0.66747843  1
  C  C195  1  0.50000000  0.65428184  0.79103356  1
  C  C196  1  0.50000000  0.71619295  0.58501122  1
  C  C197  1  0.50000000  0.71626066  0.95551120  1
  C  C198  1  0.50000000  0.71518710  0.70854936  1
  C  C199  1  0.50000000  0.71552608  0.83084192  1
  C  C200  1  0.50000000  0.68628035  0.52467616  1
  C  C201  1  0.50000000  0.68644312  0.89361999  1
  C  C202  1  0.50000000  0.68556501  0.64777833  1
  C  C203  1  0.50000000  0.68493474  0.77060970  1
  C  C204  1  0.50000000  0.71627766  0.54446779  1
  C  C205  1  0.50000000  0.71628888  0.91496297  1
  C  C206  1  0.50000000  0.71543516  0.66884734  1
  C  C207  1  0.50000000  0.71520934  0.79112647  1
  H  H208  1  0.50000000  0.26087376  0.09611863  1
  H  H209  1  0.50000000  0.26205915  0.59799678  1
  H  H210  1  0.50000000  0.26139726  0.47338483  1
  H  H211  1  0.50000000  0.26190357  0.97162647  1
  H  H212  1  0.50000000  0.26035308  0.22179884  1
  H  H213  1  0.50000000  0.26244947  0.72272238  1
  H  H214  1  0.50000000  0.26049977  0.34767283  1
  H  H215  1  0.50000000  0.26235505  0.84720008  1
  H  H216  1  0.50000000  0.26143980  0.02649750  1
  H  H217  1  0.50000000  0.26179452  0.52838460  1
  H  H218  1  0.50000000  0.26091279  0.40341597  1
  H  H219  1  0.50000000  0.26216607  0.90177569  1
  H  H220  1  0.50000000  0.26061228  0.15200274  1
  H  H221  1  0.50000000  0.26225845  0.65303617  1
  H  H222  1  0.50000000  0.26039748  0.27780438  1
  H  H223  1  0.50000000  0.26244887  0.77729768  1
  H  H224  1  0.50000000  0.74004520  0.60019757  1
  H  H225  1  0.50000000  0.73986391  0.97136567  1
  H  H226  1  0.50000000  0.73895775  0.72375001  1
  H  H227  1  0.50000000  0.73936973  0.84594797  1
  H  H228  1  0.50000000  0.73989934  0.52862302  1
  H  H229  1  0.50000000  0.74026407  0.90002211  1
  H  H230  1  0.50000000  0.73923978  0.65367761  1
  H  H231  1  0.50000000  0.73891694  0.77578221  1
  H  H232  1  0.50000000  0.61306511  0.10101169  1
  H  H233  1  0.50000000  0.61483009  0.46343826  1
  H  H234  1  0.50000000  0.61342676  0.22326164  1
  H  H235  1  0.50000000  0.61358838  0.34631693  1
  H  H236  1  0.50000000  0.63025433  0.00433952  1
  H  H237  1  0.50000000  0.61508369  0.03669723  1
  H  H238  1  0.50000000  0.61303249  0.39885009  1
  H  H239  1  0.50000000  0.61359459  0.15349110  1
  H  H240  1  0.50000000  0.61350453  0.27674487  1
  H  H241  1  0.50000000  0.68564432  0.00706867  1
  H  H242  1  0.50000000  0.63044164  0.49538633  1
  H  H243  1  0.50000000  0.68568767  0.49289933  1
