# generated using pymatgen
data_HC4
_symmetry_space_group_name_H-M   'P 1'
_cell_length_a   20.00000000
_cell_length_b   40.19450000
_cell_length_c   34.62172752
_cell_angle_alpha   90.00000000
_cell_angle_beta   90.00000000
_cell_angle_gamma   90.00000000
_symmetry_Int_Tables_number   1
_chemical_formula_structural   HC4
_chemical_formula_sum   'H52 C208'
_cell_volume   27832.06053834
_cell_formula_units_Z   52
loop_
 _symmetry_equiv_pos_site_id
 _symmetry_equiv_pos_as_xyz
  1  'x, y, z'
loop_
 _atom_site_type_symbol
 _atom_site_label
 _atom_site_symmetry_multiplicity
 _atom_site_fract_x
 _atom_site_fract_y
 _atom_site_fract_z
 _atom_site_occupancy
  C  C0  1  0.50000000  0.28473032  0.08122052  1
  C  C1  1  0.50000000  0.28630108  0.58318532  1
  C  C2  1  0.50000000  0.28518954  0.45849641  1
  C  C3  1  0.50000000  0.28605489  0.95647876  1
  C  C4  1  0.50000000  0.28374194  0.20686364  1
  C  C5  1  0.50000000  0.28639777  0.70755303  1
  C  C6  1  0.50000000  0.28396193  0.33293016  1
  C  C7  1  0.50000000  0.28646814  0.83211826  1
  C  C8  1  0.50000000  0.31433818  0.10322661  1
  C  C9  1  0.50000000  0.31631979  0.60439368  1
  C  C10  1  0.50000000  0.31529570  0.47968252  1
  C  C11  1  0.50000000  0.31581281  0.97822610  1
  C  C12  1  0.50000000  0.31348245  0.22878815  1
  C  C13  1  0.50000000  0.31634260  0.72898695  1
  C  C14  1  0.50000000  0.31390350  0.35447146  1
  C  C15  1  0.50000000  0.31639508  0.85355856  1
  C  C16  1  0.50000000  0.28521527  0.04132114  1
  C  C17  1  0.50000000  0.28603029  0.54335185  1
  C  C18  1  0.50000000  0.28470654  0.41859006  1
  C  C19  1  0.50000000  0.28632621  0.91663698  1
  C  C20  1  0.50000000  0.28395495  0.16687091  1
  C  C21  1  0.50000000  0.28642460  0.66769954  1
  C  C22  1  0.50000000  0.28375260  0.29293455  1
  C  C23  1  0.50000000  0.28644862  0.79227137  1
  C  C24  1  0.50000000  0.34513245  0.08276198  1
  C  C25  1  0.50000000  0.34688528  0.58352924  1
  C  C26  1  0.50000000  0.34571971  0.45870772  1
  C  C27  1  0.50000000  0.34664964  0.95779890  1
  C  C28  1  0.50000000  0.34412213  0.20805108  1
  C  C29  1  0.50000000  0.34700150  0.70833495  1
  C  C30  1  0.50000000  0.34434409  0.33345637  1
  C  C31  1  0.50000000  0.34708691  0.83306426  1
  C  C32  1  0.50000000  0.37570536  0.10398612  1
  C  C33  1  0.50000000  0.37785909  0.60418356  1
  C  C34  1  0.50000000  0.37682214  0.47944914  1
  C  C35  1  0.50000000  0.37741948  0.97887633  1
  C  C36  1  0.50000000  0.37488410  0.22914815  1
  C  C37  1  0.50000000  0.37780650  0.72918017  1
  C  C38  1  0.50000000  0.37526859  0.35434043  1
  C  C39  1  0.50000000  0.37787595  0.85411777  1
  C  C40  1  0.50000000  0.31532918  0.02015325  1
  C  C41  1  0.50000000  0.31578645  0.52161022  1
  C  C42  1  0.50000000  0.31431773  0.39656713  1
  C  C43  1  0.50000000  0.31634664  0.89543141  1
  C  C44  1  0.50000000  0.31390236  0.14533805  1
  C  C45  1  0.50000000  0.31635573  0.64626139  1
  C  C46  1  0.50000000  0.31349339  0.27101695  1
  C  C47  1  0.50000000  0.31636279  0.77083404  1
  C  C48  1  0.50000000  0.34573678  0.04114796  1
  C  C49  1  0.50000000  0.34663974  0.54204143  1
  C  C50  1  0.50000000  0.34511760  0.41706996  1
  C  C51  1  0.50000000  0.34689933  0.91631308  1
  C  C52  1  0.50000000  0.34435077  0.16636141  1
  C  C53  1  0.50000000  0.34705563  0.66676809  1
  C  C54  1  0.50000000  0.34413220  0.29175911  1
  C  C55  1  0.50000000  0.34701733  0.79147891  1
  C  C56  1  0.50000000  0.40640656  0.08331935  1
  C  C57  1  0.50000000  0.40840838  0.58323408  1
  C  C58  1  0.50000000  0.40718110  0.45836291  1
  C  C59  1  0.50000000  0.40833251  0.95839493  1
  C  C60  1  0.50000000  0.40543476  0.20830351  1
  C  C61  1  0.50000000  0.40834523  0.70825003  1
  C  C62  1  0.50000000  0.40564035  0.33330165  1
  C  C63  1  0.50000000  0.40845164  0.83331516  1
  C  C64  1  0.50000000  0.43664917  0.10447798  1
  C  C65  1  0.50000000  0.43922411  0.60391139  1
  C  C66  1  0.50000000  0.43811297  0.47895687  1
  C  C67  1  0.50000000  0.43900319  0.97937004  1
  C  C68  1  0.50000000  0.43586310  0.22928944  1
  C  C69  1  0.50000000  0.43890637  0.72911225  1
  C  C70  1  0.50000000  0.43627494  0.35388646  1
  C  C71  1  0.50000000  0.43909441  0.85420891  1
  C  C72  1  0.50000000  0.37683858  0.02037097  1
  C  C73  1  0.50000000  0.37740525  0.52093673  1
  C  C74  1  0.50000000  0.37569633  0.39584819  1
  C  C75  1  0.50000000  0.37787753  0.89565178  1
  C  C76  1  0.50000000  0.37528662  0.14548882  1
  C  C77  1  0.50000000  0.37786013  0.64571790  1
  C  C78  1  0.50000000  0.37489187  0.27068514  1
  C  C79  1  0.50000000  0.37782402  0.77064971  1
  C  C80  1  0.50000000  0.40719343  0.04146689  1
  C  C81  1  0.50000000  0.40830650  0.54143936  1
  C  C82  1  0.50000000  0.40640228  0.41650975  1
  C  C83  1  0.50000000  0.40843407  0.91659581  1
  C  C84  1  0.50000000  0.40565842  0.16654149  1
  C  C85  1  0.50000000  0.40844811  0.66650630  1
  C  C86  1  0.50000000  0.40542962  0.29153891  1
  C  C87  1  0.50000000  0.40835895  0.79157897  1
  C  C88  1  0.50000000  0.46759058  0.08393337  1
  C  C89  1  0.50000000  0.47006676  0.58307551  1
  C  C90  1  0.50000000  0.46866952  0.45768101  1
  C  C91  1  0.50000000  0.47041502  0.95874190  1
  C  C92  1  0.50000000  0.46672548  0.20869565  1
  C  C93  1  0.50000000  0.46956952  0.70824161  1
  C  C94  1  0.50000000  0.46676085  0.33246420  1
  C  C95  1  0.50000000  0.46965655  0.83309085  1
  C  C96  1  0.50000000  0.49730853  0.10593198  1
  C  C97  1  0.50000000  0.50049839  0.60451099  1
  C  C98  1  0.50000000  0.49989343  0.47793901  1
  C  C99  1  0.50000000  0.50115190  0.97957800  1
  C  C100  1  0.50000000  0.49736487  0.22913366  1
  C  C101  1  0.50000000  0.50010065  0.72917311  1
  C  C102  1  0.50000000  0.49738048  0.35248917  1
  C  C103  1  0.50000000  0.50032755  0.85366624  1
  C  C104  1  0.50000000  0.43812856  0.02088504  1
  C  C105  1  0.50000000  0.43896816  0.52046686  1
  C  C106  1  0.50000000  0.43665918  0.39534098  1
  C  C107  1  0.50000000  0.43925219  0.89589719  1
  C  C108  1  0.50000000  0.43628942  0.14595489  1
  C  C109  1  0.50000000  0.43908985  0.64559426  1
  C  C110  1  0.50000000  0.43585910  0.27056649  1
  C  C111  1  0.50000000  0.43891270  0.77068459  1
  C  C112  1  0.50000000  0.46867741  0.04217698  1
  C  C113  1  0.50000000  0.47037738  0.54107545  1
  C  C114  1  0.50000000  0.46758866  0.41591789  1
  C  C115  1  0.50000000  0.47010765  0.91673145  1
  C  C116  1  0.50000000  0.46677874  0.16741439  1
  C  C117  1  0.50000000  0.46966553  0.66671486  1
  C  C118  1  0.50000000  0.46671445  0.29116420  1
  C  C119  1  0.50000000  0.46956977  0.79157223  1
  C  C120  1  0.50000000  0.52732006  0.08583695  1
  C  C121  1  0.50000000  0.53141377  0.58439096  1
  C  C122  1  0.50000000  0.52818332  0.45343071  1
  C  C123  1  0.50000000  0.53209040  0.95716847  1
  C  C124  1  0.50000000  0.52746067  0.20809063  1
  C  C125  1  0.50000000  0.53082379  0.70862681  1
  C  C126  1  0.50000000  0.52749332  0.33142995  1
  C  C127  1  0.50000000  0.53084718  0.83249717  1
  C  C128  1  0.50000000  0.56195087  0.60604199  1
  C  C129  1  0.50000000  0.56403946  0.97339932  1
  C  C130  1  0.50000000  0.56160293  0.72931602  1
  C  C131  1  0.50000000  0.56175877  0.85262443  1
  C  C132  1  0.50000000  0.49989026  0.02190709  1
  C  C133  1  0.50000000  0.50112635  0.52026172  1
  C  C134  1  0.50000000  0.49731452  0.39392312  1
  C  C135  1  0.50000000  0.50053858  0.89528899  1
  C  C136  1  0.50000000  0.49738184  0.14737081  1
  C  C137  1  0.50000000  0.50035008  0.64615464  1
  C  C138  1  0.50000000  0.49736040  0.27074169  1
  C  C139  1  0.50000000  0.50010919  0.77066358  1
  C  C140  1  0.50000000  0.52817015  0.04642624  1
  C  C141  1  0.50000000  0.53206512  0.54265341  1
  C  C142  1  0.50000000  0.52732615  0.41402184  1
  C  C143  1  0.50000000  0.53145901  0.91539707  1
  C  C144  1  0.50000000  0.52749210  0.16843050  1
  C  C145  1  0.50000000  0.53086800  0.66736614  1
  C  C146  1  0.50000000  0.52746449  0.29177029  1
  C  C147  1  0.50000000  0.53082656  0.79122615  1
  C  C148  1  0.50000000  0.59332144  0.58722774  1
  C  C149  1  0.50000000  0.59392749  0.95332789  1
  C  C150  1  0.50000000  0.59240203  0.70897998  1
  C  C151  1  0.50000000  0.59250447  0.83202387  1
  C  C152  1  0.50000000  0.62406373  0.60703758  1
  C  C153  1  0.50000000  0.62436711  0.97387155  1
  C  C154  1  0.50000000  0.62320451  0.72944771  1
  C  C155  1  0.50000000  0.62363993  0.85191989  1
  C  C156  1  0.50000000  0.56401521  0.52643791  1
  C  C157  1  0.50000000  0.56197719  0.89379953  1
  C  C158  1  0.50000000  0.56177923  0.64725247  1
  C  C159  1  0.50000000  0.56159709  0.77052308  1
  C  C160  1  0.50000000  0.59389927  0.54650402  1
  C  C161  1  0.50000000  0.59335405  0.91260412  1
  C  C162  1  0.50000000  0.59251755  0.66781695  1
  C  C163  1  0.50000000  0.59239731  0.79084930  1
  C  C164  1  0.50000000  0.65484662  0.58612869  1
  C  C165  1  0.50000000  0.65490058  0.95541652  1
  C  C166  1  0.50000000  0.65425383  0.70915238  1
  C  C167  1  0.50000000  0.65439484  0.83167239  1
  C  C168  1  0.50000000  0.68637355  0.10245985  1
  C  C169  1  0.50000000  0.68528507  0.60635138  1
  C  C170  1  0.50000000  0.68762913  0.48337317  1
  C  C171  1  0.50000000  0.68663682  0.97624028  1
  C  C172  1  0.50000000  0.68512351  0.22995677  1
  C  C173  1  0.50000000  0.68499317  0.72931643  1
  C  C174  1  0.50000000  0.68553576  0.35735352  1
  C  C175  1  0.50000000  0.68517192  0.85225828  1
  C  C176  1  0.50000000  0.62431566  0.52594277  1
  C  C177  1  0.50000000  0.62408400  0.89278452  1
  C  C178  1  0.50000000  0.62363754  0.64789801  1
  C  C179  1  0.50000000  0.62320387  0.77037349  1
  C  C180  1  0.50000000  0.65484953  0.54437928  1
  C  C181  1  0.50000000  0.65488011  0.91367643  1
  C  C182  1  0.50000000  0.65438932  0.66813584  1
  C  C183  1  0.50000000  0.65425849  0.79065927  1
  C  C184  1  0.50000000  0.71560788  0.07970494  1
  C  C185  1  0.50000000  0.71589571  0.58515716  1
  C  C186  1  0.50000000  0.71626777  0.46007248  1
  C  C187  1  0.50000000  0.71657002  0.95393223  1
  C  C188  1  0.50000000  0.71387381  0.20617103  1
  C  C189  1  0.50000000  0.71517439  0.70825551  1
  C  C190  1  0.50000000  0.71404647  0.33330881  1
  C  C191  1  0.50000000  0.71530248  0.83106408  1
  C  C192  1  0.50000000  0.68771942  0.01638994  1
  C  C193  1  0.50000000  0.68655657  0.52352586  1
  C  C194  1  0.50000000  0.68639863  0.39721177  1
  C  C195  1  0.50000000  0.68531156  0.89344432  1
  C  C196  1  0.50000000  0.68543812  0.14231284  1
  C  C197  1  0.50000000  0.68516433  0.64754386  1
  C  C198  1  0.50000000  0.68517876  0.26979292  1
  C  C199  1  0.50000000  0.68500146  0.77049723  1
  C  C200  1  0.50000000  0.71635850  0.03968658  1
  C  C201  1  0.50000000  0.71649407  0.54580958  1
  C  C202  1  0.50000000  0.71558289  0.42004798  1
  C  C203  1  0.50000000  0.71594184  0.91459504  1
  C  C204  1  0.50000000  0.71392879  0.16637706  1
  C  C205  1  0.50000000  0.71529588  0.66874843  1
  C  C206  1  0.50000000  0.71397412  0.29350391  1
  C  C207  1  0.50000000  0.71519030  0.79155951  1
  H  H208  1  0.50000000  0.26057009  0.09568234  1
  H  H209  1  0.50000000  0.26242915  0.59827962  1
  H  H210  1  0.50000000  0.26134189  0.47365358  1
  H  H211  1  0.50000000  0.26187770  0.97094633  1
  H  H212  1  0.50000000  0.25960408  0.22144642  1
  H  H213  1  0.50000000  0.26240940  0.72245208  1
  H  H214  1  0.50000000  0.26002438  0.34792839  1
  H  H215  1  0.50000000  0.26247958  0.84699238  1
  H  H216  1  0.50000000  0.26136864  0.02616295  1
  H  H217  1  0.50000000  0.26189889  0.52879590  1
  H  H218  1  0.50000000  0.26053250  0.40413210  1
  H  H219  1  0.50000000  0.26242968  0.90158220  1
  H  H220  1  0.50000000  0.26001197  0.15187316  1
  H  H221  1  0.50000000  0.26244422  0.65280420  1
  H  H222  1  0.50000000  0.25964833  0.27826369  1
  H  H223  1  0.50000000  0.26247450  0.77737180  1
  H  H224  1  0.50000000  0.73964738  0.09462147  1
  H  H225  1  0.50000000  0.73951460  0.60071312  1
  H  H226  1  0.50000000  0.74087486  0.47371703  1
  H  H227  1  0.50000000  0.74059985  0.96877797  1
  H  H228  1  0.50000000  0.73830417  0.22027151  1
  H  H229  1  0.50000000  0.73898272  0.72338773  1
  H  H230  1  0.50000000  0.73847028  0.34742778  1
  H  H231  1  0.50000000  0.73922041  0.84593773  1
  H  H232  1  0.50000000  0.74096883  0.02603998  1
  H  H233  1  0.50000000  0.74048769  0.53088610  1
  H  H234  1  0.50000000  0.73964508  0.40518602  1
  H  H235  1  0.50000000  0.73955446  0.89902844  1
  H  H236  1  0.50000000  0.73835382  0.15225791  1
  H  H237  1  0.50000000  0.73921835  0.65387827  1
  H  H238  1  0.50000000  0.73838512  0.27935609  1
  H  H239  1  0.50000000  0.73901488  0.77645756  1
  H  H240  1  0.50000000  0.55116371  0.10092722  1
  H  H241  1  0.50000000  0.55328354  0.46340017  1
  H  H242  1  0.50000000  0.55136350  0.22310853  1
  H  H243  1  0.50000000  0.55146351  0.34626417  1
  H  H244  1  0.50000000  0.56858614  0.00372119  1
  H  H245  1  0.50000000  0.55325910  0.03641541  1
  H  H246  1  0.50000000  0.55116673  0.39893836  1
  H  H247  1  0.50000000  0.55147703  0.15363437  1
  H  H248  1  0.50000000  0.55137447  0.27676510  1
  H  H249  1  0.50000000  0.62279752  0.00543174  1
  H  H250  1  0.50000000  0.56851246  0.49611883  1
  H  H251  1  0.50000000  0.66231906  0.08753355  1
  H  H252  1  0.50000000  0.66378528  0.46821392  1
  H  H253  1  0.50000000  0.66070215  0.21577603  1
  H  H254  1  0.50000000  0.66088205  0.34378295  1
  H  H255  1  0.50000000  0.62269458  0.49438979  1
  H  H256  1  0.50000000  0.66389509  0.03160020  1
  H  H257  1  0.50000000  0.66235454  0.41216310  1
  H  H258  1  0.50000000  0.66075676  0.15582251  1
  H  H259  1  0.50000000  0.66081027  0.28409054  1
