# generated using pymatgen
data_HC4
_symmetry_space_group_name_H-M   'P 1'
_cell_length_a   20.00000000
_cell_length_b   40.19450000
_cell_length_c   34.55904722
_cell_angle_alpha   90.00000000
_cell_angle_beta   90.00000000
_cell_angle_gamma   90.00000000
_symmetry_Int_Tables_number   1
_chemical_formula_structural   HC4
_chemical_formula_sum   'H52 C208'
_cell_volume   27781.67246791
_cell_formula_units_Z   52
loop_
 _symmetry_equiv_pos_site_id
 _symmetry_equiv_pos_as_xyz
  1  'x, y, z'
loop_
 _atom_site_type_symbol
 _atom_site_label
 _atom_site_symmetry_multiplicity
 _atom_site_fract_x
 _atom_site_fract_y
 _atom_site_fract_z
 _atom_site_occupancy
  C  C0  1  0.50000000  0.28506158  0.08283025  1
  C  C1  1  0.50000000  0.28353871  0.58214771  1
  C  C2  1  0.50000000  0.28452489  0.45691614  1
  C  C3  1  0.50000000  0.28384892  0.95769585  1
  C  C4  1  0.50000000  0.28570620  0.20749452  1
  C  C5  1  0.50000000  0.28315109  0.70739223  1
  C  C6  1  0.50000000  0.28555211  0.33212635  1
  C  C7  1  0.50000000  0.28325384  0.83254008  1
  C  C8  1  0.50000000  0.31519973  0.10391780  1
  C  C9  1  0.50000000  0.31330815  0.60397510  1
  C  C10  1  0.50000000  0.31419703  0.47886152  1
  C  C11  1  0.50000000  0.31390370  0.97895744  1
  C  C12  1  0.50000000  0.31567115  0.22881831  1
  C  C13  1  0.50000000  0.31302718  0.72898855  1
  C  C14  1  0.50000000  0.31535179  0.35376750  1
  C  C15  1  0.50000000  0.31321246  0.85396148  1
  C  C16  1  0.50000000  0.28458564  0.04290849  1
  C  C17  1  0.50000000  0.28377082  0.54220164  1
  C  C18  1  0.50000000  0.28498096  0.41699111  1
  C  C19  1  0.50000000  0.28359637  0.91774768  1
  C  C20  1  0.50000000  0.28559346  0.16755034  1
  C  C21  1  0.50000000  0.28320298  0.66743378  1
  C  C22  1  0.50000000  0.28570123  0.29218714  1
  C  C23  1  0.50000000  0.28316575  0.79258312  1
  C  C24  1  0.50000000  0.34557546  0.08295593  1
  C  C25  1  0.50000000  0.34401798  0.58347912  1
  C  C26  1  0.50000000  0.34498848  0.45848121  1
  C  C27  1  0.50000000  0.34433225  0.95794652  1
  C  C28  1  0.50000000  0.34624517  0.20810145  1
  C  C29  1  0.50000000  0.34369233  0.70833164  1
  C  C30  1  0.50000000  0.34605073  0.33325812  1
  C  C31  1  0.50000000  0.34378966  0.83312179  1
  C  C32  1  0.50000000  0.37671009  0.10367335  1
  C  C33  1  0.50000000  0.37480303  0.60458947  1
  C  C34  1  0.50000000  0.37556545  0.47983385  1
  C  C35  1  0.50000000  0.37536077  0.97856399  1
  C  C36  1  0.50000000  0.37721345  0.22906072  1
  C  C37  1  0.50000000  0.37453716  0.72921743  1
  C  C38  1  0.50000000  0.37687859  0.35446174  1
  C  C39  1  0.50000000  0.37471521  0.85381556  1
  C  C40  1  0.50000000  0.31427306  0.02096971  1
  C  C41  1  0.50000000  0.31380560  0.52087934  1
  C  C42  1  0.50000000  0.31510642  0.39585873  1
  C  C43  1  0.50000000  0.31338671  0.89592689  1
  C  C44  1  0.50000000  0.31543064  0.14599077  1
  C  C45  1  0.50000000  0.31314328  0.64594654  1
  C  C46  1  0.50000000  0.31566149  0.27088112  1
  C  C47  1  0.50000000  0.31302946  0.77093575  1
  C  C48  1  0.50000000  0.34507290  0.04133727  1
  C  C49  1  0.50000000  0.34423164  0.54190267  1
  C  C50  1  0.50000000  0.34548062  0.41684971  1
  C  C51  1  0.50000000  0.34410895  0.91638604  1
  C  C52  1  0.50000000  0.34611352  0.16650936  1
  C  C53  1  0.50000000  0.34374562  0.66675079  1
  C  C54  1  0.50000000  0.34621157  0.29165128  1
  C  C55  1  0.50000000  0.34371335  0.79154709  1
  C  C56  1  0.50000000  0.40712096  0.08262191  1
  C  C57  1  0.50000000  0.40545491  0.58416668  1
  C  C58  1  0.50000000  0.40651252  0.45957501  1
  C  C59  1  0.50000000  0.40574155  0.95732257  1
  C  C60  1  0.50000000  0.40778173  0.20823838  1
  C  C61  1  0.50000000  0.40519108  0.70852391  1
  C  C62  1  0.50000000  0.40757489  0.33385735  1
  C  C63  1  0.50000000  0.40525674  0.83286671  1
  C  C64  1  0.50000000  0.43704254  0.10403717  1
  C  C65  1  0.50000000  0.43607089  0.60515075  1
  C  C66  1  0.50000000  0.43582516  0.48138531  1
  C  C67  1  0.50000000  0.43638896  0.97793307  1
  C  C68  1  0.50000000  0.43759666  0.22991368  1
  C  C69  1  0.50000000  0.43587804  0.72923288  1
  C  C70  1  0.50000000  0.43721566  0.35578146  1
  C  C71  1  0.50000000  0.43605066  0.85329770  1
  C  C72  1  0.50000000  0.37566224  0.02000219  1
  C  C73  1  0.50000000  0.37525926  0.52127764  1
  C  C74  1  0.50000000  0.37661752  0.39613760  1
  C  C75  1  0.50000000  0.37488286  0.89525104  1
  C  C76  1  0.50000000  0.37694738  0.14534309  1
  C  C77  1  0.50000000  0.37466140  0.64602165  1
  C  C78  1  0.50000000  0.37719407  0.27072899  1
  C  C79  1  0.50000000  0.37454379  0.77062381  1
  C  C80  1  0.50000000  0.40661466  0.04026149  1
  C  C81  1  0.50000000  0.40564620  0.54250414  1
  C  C82  1  0.50000000  0.40701839  0.41722338  1
  C  C83  1  0.50000000  0.40554219  0.91565578  1
  C  C84  1  0.50000000  0.40762014  0.16598367  1
  C  C85  1  0.50000000  0.40522410  0.66693679  1
  C  C86  1  0.50000000  0.40773663  0.29160385  1
  C  C87  1  0.50000000  0.40521340  0.79127053  1
  C  C88  1  0.50000000  0.46700306  0.58482665  1
  C  C89  1  0.50000000  0.46758315  0.95648525  1
  C  C90  1  0.50000000  0.46676717  0.70868359  1
  C  C91  1  0.50000000  0.46678850  0.83224213  1
  C  C92  1  0.50000000  0.49746463  0.60597569  1
  C  C93  1  0.50000000  0.49821231  0.97506724  1
  C  C94  1  0.50000000  0.49758814  0.72914595  1
  C  C95  1  0.50000000  0.49755532  0.85249745  1
  C  C96  1  0.50000000  0.43592442  0.01846426  1
  C  C97  1  0.50000000  0.43628680  0.52189407  1
  C  C98  1  0.50000000  0.43695405  0.39584491  1
  C  C99  1  0.50000000  0.43614108  0.89464178  1
  C  C100  1  0.50000000  0.43727618  0.14410984  1
  C  C101  1  0.50000000  0.43600674  0.64647787  1
  C  C102  1  0.50000000  0.43757188  0.26998216  1
  C  C103  1  0.50000000  0.43588500  0.77050868  1
  C  C104  1  0.50000000  0.46749254  0.54331741  1
  C  C105  1  0.50000000  0.46707650  0.91496163  1
  C  C106  1  0.50000000  0.46676118  0.66747184  1
  C  C107  1  0.50000000  0.46678846  0.79101522  1
  C  C108  1  0.50000000  0.52831501  0.58614040  1
  C  C109  1  0.50000000  0.52830566  0.95434455  1
  C  C110  1  0.50000000  0.52841849  0.70860170  1
  C  C111  1  0.50000000  0.52849020  0.83229444  1
  C  C112  1  0.50000000  0.55957812  0.60530809  1
  C  C113  1  0.50000000  0.55857757  0.97443632  1
  C  C114  1  0.50000000  0.55927503  0.72916697  1
  C  C115  1  0.50000000  0.55944453  0.85298470  1
  C  C116  1  0.50000000  0.49811105  0.52470800  1
  C  C117  1  0.50000000  0.49751263  0.89373724  1
  C  C118  1  0.50000000  0.49752828  0.64719887  1
  C  C119  1  0.50000000  0.49759538  0.77051825  1
  C  C120  1  0.50000000  0.52823494  0.54533426  1
  C  C121  1  0.50000000  0.52837558  0.91353001  1
  C  C122  1  0.50000000  0.52847829  0.66736928  1
  C  C123  1  0.50000000  0.52842808  0.79105692  1
  C  C124  1  0.50000000  0.59868667  0.08721087  1
  C  C125  1  0.50000000  0.59019474  0.58382677  1
  C  C126  1  0.50000000  0.59639024  0.45179292  1
  C  C127  1  0.50000000  0.59010759  0.95793305  1
  C  C128  1  0.50000000  0.60181748  0.20888296  1
  C  C129  1  0.50000000  0.58995940  0.70848350  1
  C  C130  1  0.50000000  0.60102652  0.33036510  1
  C  C131  1  0.50000000  0.59005871  0.83265503  1
  C  C132  1  0.50000000  0.62950157  0.10648965  1
  C  C133  1  0.50000000  0.62073652  0.60449298  1
  C  C134  1  0.50000000  0.62407373  0.47764659  1
  C  C135  1  0.50000000  0.62157486  0.98022200  1
  C  C136  1  0.50000000  0.63237735  0.22937558  1
  C  C137  1  0.50000000  0.62057126  0.72922400  1
  C  C138  1  0.50000000  0.63085240  0.35224906  1
  C  C139  1  0.50000000  0.62065295  0.85375935  1
  C  C140  1  0.50000000  0.55849540  0.52519179  1
  C  C141  1  0.50000000  0.55962772  0.89432778  1
  C  C142  1  0.50000000  0.55941940  0.64665070  1
  C  C143  1  0.50000000  0.55928591  0.77049014  1
  C  C144  1  0.50000000  0.59637919  0.04790392  1
  C  C145  1  0.50000000  0.59003512  0.54169557  1
  C  C146  1  0.50000000  0.59872884  0.41249965  1
  C  C147  1  0.50000000  0.59025003  0.91580182  1
  C  C148  1  0.50000000  0.60102299  0.16947567  1
  C  C149  1  0.50000000  0.59002598  0.66700837  1
  C  C150  1  0.50000000  0.60179466  0.29094796  1
  C  C151  1  0.50000000  0.58998461  0.79118611  1
  C  C152  1  0.50000000  0.65878172  0.08340449  1
  C  C153  1  0.50000000  0.65163665  0.58332246  1
  C  C154  1  0.50000000  0.65612004  0.45821060  1
  C  C155  1  0.50000000  0.65202700  0.95834172  1
  C  C156  1  0.50000000  0.66301077  0.20852349  1
  C  C157  1  0.50000000  0.65135327  0.70836136  1
  C  C158  1  0.50000000  0.66213228  0.33287613  1
  C  C159  1  0.50000000  0.65137036  0.83286886  1
  C  C160  1  0.50000000  0.69040112  0.10280920  1
  C  C161  1  0.50000000  0.68194949  0.60440001  1
  C  C162  1  0.50000000  0.68584632  0.48038416  1
  C  C163  1  0.50000000  0.68365903  0.97789852  1
  C  C164  1  0.50000000  0.69399415  0.22901095  1
  C  C165  1  0.50000000  0.68197193  0.72898374  1
  C  C166  1  0.50000000  0.69208096  0.35514609  1
  C  C167  1  0.50000000  0.68194433  0.85353506  1
  C  C168  1  0.50000000  0.62407144  0.02206661  1
  C  C169  1  0.50000000  0.62153444  0.51947326  1
  C  C170  1  0.50000000  0.62955430  0.39327768  1
  C  C171  1  0.50000000  0.62079784  0.89516708  1
  C  C172  1  0.50000000  0.63082806  0.14754006  1
  C  C173  1  0.50000000  0.62062015  0.64592386  1
  C  C174  1  0.50000000  0.63236684  0.27047264  1
  C  C175  1  0.50000000  0.62060251  0.77048020  1
  C  C176  1  0.50000000  0.65609499  0.04155169  1
  C  C177  1  0.50000000  0.65198217  0.54136305  1
  C  C178  1  0.50000000  0.65881496  0.41637719  1
  C  C179  1  0.50000000  0.65167232  0.91636895  1
  C  C180  1  0.50000000  0.66212690  0.16693990  1
  C  C181  1  0.50000000  0.65133778  0.66686017  1
  C  C182  1  0.50000000  0.66300273  0.29131791  1
  C  C183  1  0.50000000  0.65139328  0.79136345  1
  C  C184  1  0.50000000  0.71922788  0.07903771  1
  C  C185  1  0.50000000  0.71248655  0.58384161  1
  C  C186  1  0.50000000  0.71693988  0.46045122  1
  C  C187  1  0.50000000  0.71323043  0.95551696  1
  C  C188  1  0.50000000  0.72343283  0.20601807  1
  C  C189  1  0.50000000  0.71192106  0.70750676  1
  C  C190  1  0.50000000  0.72247957  0.33389063  1
  C  C191  1  0.50000000  0.71194201  0.83208401  1
  C  C192  1  0.50000000  0.68581846  0.01937116  1
  C  C193  1  0.50000000  0.68363405  0.52186170  1
  C  C194  1  0.50000000  0.69041509  0.39699112  1
  C  C195  1  0.50000000  0.68200768  0.89533274  1
  C  C196  1  0.50000000  0.69209494  0.14467865  1
  C  C197  1  0.50000000  0.68190893  0.64618560  1
  C  C198  1  0.50000000  0.69399482  0.27085484  1
  C  C199  1  0.50000000  0.68201580  0.77078011  1
  C  C200  1  0.50000000  0.71689507  0.03931230  1
  C  C201  1  0.50000000  0.71319264  0.54427243  1
  C  C202  1  0.50000000  0.71925452  0.42072359  1
  C  C203  1  0.50000000  0.71254021  0.91595568  1
  C  C204  1  0.50000000  0.72249654  0.16599425  1
  C  C205  1  0.50000000  0.71190326  0.66770340  1
  C  C206  1  0.50000000  0.72342459  0.29387531  1
  C  C207  1  0.50000000  0.71198240  0.79226868  1
  H  H208  1  0.50000000  0.26129448  0.09818309  1
  H  H209  1  0.50000000  0.25943321  0.59679788  1
  H  H210  1  0.50000000  0.26038114  0.47143633  1
  H  H211  1  0.50000000  0.26000278  0.97289551  1
  H  H212  1  0.50000000  0.26176469  0.22250156  1
  H  H213  1  0.50000000  0.25912173  0.72222655  1
  H  H214  1  0.50000000  0.26143761  0.34671475  1
  H  H215  1  0.50000000  0.25930173  0.84755193  1
  H  H216  1  0.50000000  0.26042096  0.02842480  1
  H  H217  1  0.50000000  0.25983336  0.52721292  1
  H  H218  1  0.50000000  0.26116122  0.40176337  1
  H  H219  1  0.50000000  0.25949871  0.90307998  1
  H  H220  1  0.50000000  0.26155459  0.15277256  1
  H  H221  1  0.50000000  0.25919513  0.65255537  1
  H  H222  1  0.50000000  0.26173743  0.27724073  1
  H  H223  1  0.50000000  0.25910816  0.77782113  1
  H  H224  1  0.50000000  0.74407086  0.09199620  1
  H  H225  1  0.50000000  0.73606779  0.59949045  1
  H  H226  1  0.50000000  0.74019782  0.47678504  1
  H  H227  1  0.50000000  0.73747771  0.96978968  1
  H  H228  1  0.50000000  0.74780400  0.22021353  1
  H  H229  1  0.50000000  0.73585355  0.72245521  1
  H  H230  1  0.50000000  0.74613810  0.34951162  1
  H  H231  1  0.50000000  0.73585427  0.84707959  1
  H  H232  1  0.50000000  0.74013071  0.02293850  1
  H  H233  1  0.50000000  0.73741321  0.52995804  1
  H  H234  1  0.50000000  0.74403574  0.40760040  1
  H  H235  1  0.50000000  0.73620482  0.90049823  1
  H  H236  1  0.50000000  0.74622298  0.15050819  1
  H  H237  1  0.50000000  0.73590626  0.65294232  1
  H  H238  1  0.50000000  0.74783452  0.27979808  1
  H  H239  1  0.50000000  0.73591323  0.77731513  1
  H  H240  1  0.50000000  0.46102813  0.08910056  1
  H  H241  1  0.50000000  0.45952393  0.46612855  1
  H  H242  1  0.50000000  0.46158809  0.21501529  1
  H  H243  1  0.50000000  0.46134124  0.34121468  1
  H  H244  1  0.50000000  0.49984485  0.00667823  1
  H  H245  1  0.50000000  0.45956949  0.03386026  1
  H  H246  1  0.50000000  0.46097069  0.41071545  1
  H  H247  1  0.50000000  0.46131971  0.15887375  1
  H  H248  1  0.50000000  0.46152884  0.28495498  1
  H  H249  1  0.50000000  0.55446963  0.00500636  1
  H  H250  1  0.50000000  0.49969477  0.49313056  1
  H  H251  1  0.50000000  0.57532456  0.10327962  1
  H  H252  1  0.50000000  0.57103120  0.46125735  1
  H  H253  1  0.50000000  0.57819186  0.22436171  1
  H  H254  1  0.50000000  0.57686960  0.34471142  1
  H  H255  1  0.50000000  0.55435490  0.49460656  1
  H  H256  1  0.50000000  0.57102801  0.03841087  1
  H  H257  1  0.50000000  0.57543430  0.39628298  1
  H  H258  1  0.50000000  0.57679043  0.15530088  1
  H  H259  1  0.50000000  0.57819628  0.27540902  1
