# generated using pymatgen
data_H13C54
_symmetry_space_group_name_H-M   'P 1'
_cell_length_a   20.00000000
_cell_length_b   40.19450000
_cell_length_c   34.59269581
_cell_angle_alpha   90.00000000
_cell_angle_beta   90.00000000
_cell_angle_gamma   90.00000000
_symmetry_Int_Tables_number   1
_chemical_formula_structural   H13C54
_chemical_formula_sum   'H52 C216'
_cell_volume   27808.72223351
_cell_formula_units_Z   4
loop_
 _symmetry_equiv_pos_site_id
 _symmetry_equiv_pos_as_xyz
  1  'x, y, z'
loop_
 _atom_site_type_symbol
 _atom_site_label
 _atom_site_symmetry_multiplicity
 _atom_site_fract_x
 _atom_site_fract_y
 _atom_site_fract_z
 _atom_site_occupancy
  C  C0  1  0.50000000  0.28102509  0.08035955  1
  C  C1  1  0.50000000  0.28394041  0.58384210  1
  C  C2  1  0.50000000  0.28186120  0.45920122  1
  C  C3  1  0.50000000  0.28334222  0.95558468  1
  C  C4  1  0.50000000  0.27939117  0.20644056  1
  C  C5  1  0.50000000  0.28476572  0.70777559  1
  C  C6  1  0.50000000  0.27975921  0.33322687  1
  C  C7  1  0.50000000  0.28460352  0.83163120  1
  C  C8  1  0.50000000  0.31049226  0.10271706  1
  C  C9  1  0.50000000  0.31415355  0.60473763  1
  C  C10  1  0.50000000  0.31215089  0.48017863  1
  C  C11  1  0.50000000  0.31296689  0.97759230  1
  C  C12  1  0.50000000  0.30905799  0.22866376  1
  C  C13  1  0.50000000  0.31482060  0.72896845  1
  C  C14  1  0.50000000  0.30981841  0.35476719  1
  C  C15  1  0.50000000  0.31447134  0.85317282  1
  C  C16  1  0.50000000  0.28182473  0.04044531  1
  C  C17  1  0.50000000  0.28339483  0.54403439  1
  C  C18  1  0.50000000  0.28106745  0.41928627  1
  C  C19  1  0.50000000  0.28392850  0.91578652  1
  C  C20  1  0.50000000  0.27975516  0.16638904  1
  C  C21  1  0.50000000  0.28461678  0.66800317  1
  C  C22  1  0.50000000  0.27938803  0.29316830  1
  C  C23  1  0.50000000  0.28476162  0.79186380  1
  C  C24  1  0.50000000  0.34142928  0.08233838  1
  C  C25  1  0.50000000  0.34461361  0.58374814  1
  C  C26  1  0.50000000  0.34243526  0.45895963  1
  C  C27  1  0.50000000  0.34398535  0.95742362  1
  C  C28  1  0.50000000  0.33976496  0.20786436  1
  C  C29  1  0.50000000  0.34539627  0.70828546  1
  C  C30  1  0.50000000  0.34020548  0.33357859  1
  C  C31  1  0.50000000  0.34525218  0.83282602  1
  C  C32  1  0.50000000  0.37188942  0.10373098  1
  C  C33  1  0.50000000  0.37570477  0.60427860  1
  C  C34  1  0.50000000  0.37368454  0.47952261  1
  C  C35  1  0.50000000  0.37463450  0.97867335  1
  C  C36  1  0.50000000  0.37050145  0.22903156  1
  C  C37  1  0.50000000  0.37621369  0.72909073  1
  C  C38  1  0.50000000  0.37121090  0.35439409  1
  C  C39  1  0.50000000  0.37592971  0.85392035  1
  C  C40  1  0.50000000  0.31211546  0.01947390  1
  C  C41  1  0.50000000  0.31302178  0.52205216  1
  C  C42  1  0.50000000  0.31052791  0.39691511  1
  C  C43  1  0.50000000  0.31414249  0.89489588  1
  C  C44  1  0.50000000  0.30980345  0.14486153  1
  C  C45  1  0.50000000  0.31447963  0.64645873  1
  C  C46  1  0.50000000  0.30906184  0.27096103  1
  C  C47  1  0.50000000  0.31481634  0.77067836  1
  C  C48  1  0.50000000  0.34240420  0.04067860  1
  C  C49  1  0.50000000  0.34403745  0.54222933  1
  C  C50  1  0.50000000  0.34147204  0.41729727  1
  C  C51  1  0.50000000  0.34458851  0.91589977  1
  C  C52  1  0.50000000  0.34017927  0.16606264  1
  C  C53  1  0.50000000  0.34525749  0.66681212  1
  C  C54  1  0.50000000  0.33977257  0.29176921  1
  C  C55  1  0.50000000  0.34539037  0.79135265  1
  C  C56  1  0.50000000  0.40274774  0.08313518  1
  C  C57  1  0.50000000  0.40620802  0.58318417  1
  C  C58  1  0.50000000  0.40396250  0.45831006  1
  C  C59  1  0.50000000  0.40571609  0.95819871  1
  C  C60  1  0.50000000  0.40110965  0.20817422  1
  C  C61  1  0.50000000  0.40675871  0.70813852  1
  C  C62  1  0.50000000  0.40152268  0.33323474  1
  C  C63  1  0.50000000  0.40667357  0.83323532  1
  C  C64  1  0.50000000  0.43289073  0.10443202  1
  C  C65  1  0.50000000  0.43715621  0.60376725  1
  C  C66  1  0.50000000  0.43507048  0.47879618  1
  C  C67  1  0.50000000  0.43627513  0.97933249  1
  C  C68  1  0.50000000  0.43151812  0.22920447  1
  C  C69  1  0.50000000  0.43729143  0.72904923  1
  C  C70  1  0.50000000  0.43225792  0.35373665  1
  C  C71  1  0.50000000  0.43720012  0.85419125  1
  C  C72  1  0.50000000  0.37365298  0.02012033  1
  C  C73  1  0.50000000  0.37467267  0.52096584  1
  C  C74  1  0.50000000  0.37194555  0.39592557  1
  C  C75  1  0.50000000  0.37568601  0.89537498  1
  C  C76  1  0.50000000  0.37117811  0.14526171  1
  C  C77  1  0.50000000  0.37594950  0.64574111  1
  C  C78  1  0.50000000  0.37050940  0.27061762  1
  C  C79  1  0.50000000  0.37620485  0.77054958  1
  C  C80  1  0.50000000  0.40391284  0.04135549  1
  C  C81  1  0.50000000  0.40574915  0.54144879  1
  C  C82  1  0.50000000  0.40281653  0.41652230  1
  C  C83  1  0.50000000  0.40618857  0.91647578  1
  C  C84  1  0.50000000  0.40149815  0.16641104  1
  C  C85  1  0.50000000  0.40668745  0.66643760  1
  C  C86  1  0.50000000  0.40112541  0.29146850  1
  C  C87  1  0.50000000  0.40673859  0.79152957  1
  C  C88  1  0.50000000  0.46394556  0.08401597  1
  C  C89  1  0.50000000  0.46786777  0.58280934  1
  C  C90  1  0.50000000  0.46548237  0.45740098  1
  C  C91  1  0.50000000  0.46784627  0.95887633  1
  C  C92  1  0.50000000  0.46237145  0.20866638  1
  C  C93  1  0.50000000  0.46795248  0.70816366  1
  C  C94  1  0.50000000  0.46265411  0.33222573  1
  C  C95  1  0.50000000  0.46788575  0.83309449  1
  C  C96  1  0.50000000  0.49355537  0.10621861  1
  C  C97  1  0.50000000  0.49851221  0.60425395  1
  C  C98  1  0.50000000  0.49691156  0.47749516  1
  C  C99  1  0.50000000  0.49851987  0.97995979  1
  C  C100  1  0.50000000  0.49295353  0.22912648  1
  C  C101  1  0.50000000  0.49854060  0.72909347  1
  C  C102  1  0.50000000  0.49338367  0.35211528  1
  C  C103  1  0.50000000  0.49854596  0.85375069  1
  C  C104  1  0.50000000  0.43501320  0.02086446  1
  C  C105  1  0.50000000  0.43632006  0.52033446  1
  C  C106  1  0.50000000  0.43295707  0.39520945  1
  C  C107  1  0.50000000  0.43714325  0.89591838  1
  C  C108  1  0.50000000  0.43223570  0.14589377  1
  C  C109  1  0.50000000  0.43721841  0.64549493  1
  C  C110  1  0.50000000  0.43153484  0.27044796  1
  C  C111  1  0.50000000  0.43727855  0.77064305  1
  C  C112  1  0.50000000  0.46541683  0.04226064  1
  C  C113  1  0.50000000  0.46787733  0.54081440  1
  C  C114  1  0.50000000  0.46404226  0.41564943  1
  C  C115  1  0.50000000  0.46785285  0.91688638  1
  C  C116  1  0.50000000  0.46261392  0.16743599  1
  C  C117  1  0.50000000  0.46789544  0.66662220  1
  C  C118  1  0.50000000  0.46240119  0.29099368  1
  C  C119  1  0.50000000  0.46793629  0.79155293  1
  C  C120  1  0.50000000  0.52375942  0.08637924  1
  C  C121  1  0.50000000  0.52925866  0.58411459  1
  C  C122  1  0.50000000  0.52509243  0.45272208  1
  C  C123  1  0.50000000  0.52971315  0.95757625  1
  C  C124  1  0.50000000  0.52314498  0.20833049  1
  C  C125  1  0.50000000  0.52918395  0.70851266  1
  C  C126  1  0.50000000  0.52341315  0.33089894  1
  C  C127  1  0.50000000  0.52912871  0.83258803  1
  C  C128  1  0.50000000  0.55994540  0.60581552  1
  C  C129  1  0.50000000  0.56150950  0.97369919  1
  C  C130  1  0.50000000  0.56003221  0.72925578  1
  C  C131  1  0.50000000  0.55999224  0.85281826  1
  C  C132  1  0.50000000  0.49685177  0.02218339  1
  C  C133  1  0.50000000  0.49855559  0.51973357  1
  C  C134  1  0.50000000  0.49366227  0.39345512  1
  C  C135  1  0.50000000  0.49850261  0.89546505  1
  C  C136  1  0.50000000  0.49333346  0.14756022  1
  C  C137  1  0.50000000  0.49854780  0.64597853  1
  C  C138  1  0.50000000  0.49297531  0.27052941  1
  C  C139  1  0.50000000  0.49853596  0.77064534  1
  C  C140  1  0.50000000  0.52501556  0.04698360  1
  C  C141  1  0.50000000  0.52973419  0.54214731  1
  C  C142  1  0.50000000  0.52387193  0.41331094  1
  C  C143  1  0.50000000  0.52924063  0.91562488  1
  C  C144  1  0.50000000  0.52336383  0.16875036  1
  C  C145  1  0.50000000  0.52910916  0.66717050  1
  C  C146  1  0.50000000  0.52317516  0.29131513  1
  C  C147  1  0.50000000  0.52918198  0.79124913  1
  C  C148  1  0.50000000  0.59130796  0.58706212  1
  C  C149  1  0.50000000  0.59160080  0.95341719  1
  C  C150  1  0.50000000  0.59082113  0.70880388  1
  C  C151  1  0.50000000  0.59094833  0.83243062  1
  C  C152  1  0.50000000  0.62233771  0.60626896  1
  C  C153  1  0.50000000  0.62154716  0.97415238  1
  C  C154  1  0.50000000  0.62152917  0.72940677  1
  C  C155  1  0.50000000  0.62194647  0.85253699  1
  C  C156  1  0.50000000  0.56158685  0.52611090  1
  C  C157  1  0.50000000  0.55994190  0.89397299  1
  C  C158  1  0.50000000  0.55997719  0.64697130  1
  C  C159  1  0.50000000  0.56004076  0.77056088  1
  C  C160  1  0.50000000  0.59168302  0.54644905  1
  C  C161  1  0.50000000  0.59128098  0.91279629  1
  C  C162  1  0.50000000  0.59091608  0.66741685  1
  C  C163  1  0.50000000  0.59082521  0.79105163  1
  C  C164  1  0.50000000  0.66878928  0.08742963  1
  C  C165  1  0.50000000  0.65311753  0.58486048  1
  C  C166  1  0.50000000  0.66374971  0.45214171  1
  C  C167  1  0.50000000  0.65330008  0.95717015  1
  C  C168  1  0.50000000  0.67704528  0.20898455  1
  C  C169  1  0.50000000  0.65256476  0.70899807  1
  C  C170  1  0.50000000  0.67551737  0.33101403  1
  C  C171  1  0.50000000  0.65275438  0.83206227  1
  C  C172  1  0.50000000  0.70069478  0.10384150  1
  C  C173  1  0.50000000  0.68353961  0.60562995  1
  C  C174  1  0.50000000  0.68979344  0.47947495  1
  C  C175  1  0.50000000  0.68483738  0.97817705  1
  C  C176  1  0.50000000  0.70768065  0.22882478  1
  C  C177  1  0.50000000  0.68329366  0.72923202  1
  C  C178  1  0.50000000  0.70436698  0.35413612  1
  C  C179  1  0.50000000  0.68341015  0.85263681  1
  C  C180  1  0.50000000  0.62162436  0.52574137  1
  C  C181  1  0.50000000  0.62233349  0.89363564  1
  C  C182  1  0.50000000  0.62191933  0.64735631  1
  C  C183  1  0.50000000  0.62154065  0.77049480  1
  C  C184  1  0.50000000  0.66360112  0.04799398  1
  C  C185  1  0.50000000  0.65335661  0.54278511  1
  C  C186  1  0.50000000  0.66896116  0.41272499  1
  C  C187  1  0.50000000  0.65310534  0.91508745  1
  C  C188  1  0.50000000  0.67542110  0.16918203  1
  C  C189  1  0.50000000  0.65270632  0.66787118  1
  C  C190  1  0.50000000  0.67709921  0.29122208  1
  C  C191  1  0.50000000  0.65258748  0.79092705  1
  C  C192  1  0.50000000  0.72733611  0.07732945  1
  C  C193  1  0.50000000  0.71354837  0.58468693  1
  C  C194  1  0.50000000  0.72214837  0.46259158  1
  C  C195  1  0.50000000  0.71378929  0.95534324  1
  C  C196  1  0.50000000  0.73668696  0.20585371  1
  C  C197  1  0.50000000  0.71332976  0.70814229  1
  C  C198  1  0.50000000  0.73513440  0.33460906  1
  C  C199  1  0.50000000  0.71343354  0.83151253  1
  C  C200  1  0.50000000  0.68963912  0.02063317  1
  C  C201  1  0.50000000  0.68493177  0.52189025  1
  C  C202  1  0.50000000  0.70086413  0.39632700  1
  C  C203  1  0.50000000  0.68355062  0.89435459  1
  C  C204  1  0.50000000  0.70424982  0.14603090  1
  C  C205  1  0.50000000  0.68334906  0.64732432  1
  C  C206  1  0.50000000  0.70771700  0.27135199  1
  C  C207  1  0.50000000  0.68330983  0.77070129  1
  C  C208  1  0.50000000  0.72198296  0.03755926  1
  C  C209  1  0.50000000  0.71386116  0.54475156  1
  C  C210  1  0.50000000  0.72751426  0.42282798  1
  C  C211  1  0.50000000  0.71351827  0.91539495  1
  C  C212  1  0.50000000  0.73503195  0.16553446  1
  C  C213  1  0.50000000  0.71337294  0.66842443  1
  C  C214  1  0.50000000  0.73675699  0.29428396  1
  C  C215  1  0.50000000  0.71335957  0.79178901  1
  H  H216  1  0.50000000  0.25674144  0.09459354  1
  H  H217  1  0.50000000  0.26018968  0.59915471  1
  H  H218  1  0.50000000  0.25807886  0.47451889  1
  H  H219  1  0.50000000  0.25914150  0.96997863  1
  H  H220  1  0.50000000  0.25515787  0.22085905  1
  H  H221  1  0.50000000  0.26093751  0.72292008  1
  H  H222  1  0.50000000  0.25579467  0.34826964  1
  H  H223  1  0.50000000  0.26061482  0.84642170  1
  H  H224  1  0.50000000  0.25804338  0.02512688  1
  H  H225  1  0.50000000  0.25922232  0.52958282  1
  H  H226  1  0.50000000  0.25679578  0.40502673  1
  H  H227  1  0.50000000  0.26018354  0.90046407  1
  H  H228  1  0.50000000  0.25578383  0.15137637  1
  H  H229  1  0.50000000  0.26066369  0.65313973  1
  H  H230  1  0.50000000  0.25516488  0.27870885  1
  H  H231  1  0.50000000  0.26093908  0.77671524  1
  H  H232  1  0.50000000  0.75308557  0.08771315  1
  H  H233  1  0.50000000  0.73749139  0.59961317  1
  H  H234  1  0.50000000  0.74445092  0.48066497  1
  H  H235  1  0.50000000  0.73820215  0.96916596  1
  H  H236  1  0.50000000  0.76128031  0.21950426  1
  H  H237  1  0.50000000  0.73719076  0.72323397  1
  H  H238  1  0.50000000  0.75836010  0.35120339  1
  H  H239  1  0.50000000  0.73737168  0.84645085  1
  H  H240  1  0.50000000  0.74430910  0.01953281  1
  H  H241  1  0.50000000  0.73827417  0.53094052  1
  H  H242  1  0.50000000  0.75326902  0.41245776  1
  H  H243  1  0.50000000  0.73750007  0.90054635  1
  H  H244  1  0.50000000  0.75828553  0.14899814  1
  H  H245  1  0.50000000  0.73727655  0.65343005  1
  H  H246  1  0.50000000  0.76132671  0.28057614  1
  H  H247  1  0.50000000  0.73723209  0.77672168  1
  H  H248  1  0.50000000  0.54737026  0.10191986  1
  H  H249  1  0.50000000  0.55021452  0.46274837  1
  H  H250  1  0.50000000  0.54692116  0.22350829  1
  H  H251  1  0.50000000  0.54744913  0.34551584  1
  H  H252  1  0.50000000  0.56597249  0.00410230  1
  H  H253  1  0.50000000  0.55014954  0.03700814  1
  H  H254  1  0.50000000  0.54752168  0.39782771  1
  H  H255  1  0.50000000  0.54738046  0.15408808  1
  H  H256  1  0.50000000  0.54695337  0.27613689  1
  H  H257  1  0.50000000  0.61797593  0.00503936  1
  H  H258  1  0.50000000  0.56615973  0.49571587  1
  H  H259  1  0.50000000  0.64657614  0.10557177  1
  H  H260  1  0.50000000  0.63790452  0.46046885  1
  H  H261  1  0.50000000  0.65341568  0.22452676  1
  H  H262  1  0.50000000  0.65081128  0.34411587  1
  H  H263  1  0.50000000  0.61799034  0.49486263  1
  H  H264  1  0.50000000  0.63775550  0.03965356  1
  H  H265  1  0.50000000  0.64677412  0.39455179  1
  H  H266  1  0.50000000  0.65071548  0.15609574  1
  H  H267  1  0.50000000  0.65345475  0.27570340  1
