# generated using pymatgen
data_H13C54
_symmetry_space_group_name_H-M   'P 1'
_cell_length_a   20.00000000
_cell_length_b   40.19450000
_cell_length_c   34.58978556
_cell_angle_alpha   90.00000000
_cell_angle_beta   90.00000000
_cell_angle_gamma   90.00000000
_symmetry_Int_Tables_number   1
_chemical_formula_structural   H13C54
_chemical_formula_sum   'H52 C216'
_cell_volume   27806.38271042
_cell_formula_units_Z   4
loop_
 _symmetry_equiv_pos_site_id
 _symmetry_equiv_pos_as_xyz
  1  'x, y, z'
loop_
 _atom_site_type_symbol
 _atom_site_label
 _atom_site_symmetry_multiplicity
 _atom_site_fract_x
 _atom_site_fract_y
 _atom_site_fract_z
 _atom_site_occupancy
  C  C0  1  0.50000000  0.27980908  0.07946013  1
  C  C1  1  0.50000000  0.28548124  0.58354876  1
  C  C2  1  0.50000000  0.28178256  0.46001781  1
  C  C3  1  0.50000000  0.28501726  0.95576026  1
  C  C4  1  0.50000000  0.27616387  0.20608231  1
  C  C5  1  0.50000000  0.28571847  0.70739538  1
  C  C6  1  0.50000000  0.27695559  0.33363519  1
  C  C7  1  0.50000000  0.28575725  0.83207945  1
  C  C8  1  0.50000000  0.30879856  0.10294168  1
  C  C9  1  0.50000000  0.31590782  0.60438184  1
  C  C10  1  0.50000000  0.31274339  0.48021871  1
  C  C11  1  0.50000000  0.31468180  0.97801851  1
  C  C12  1  0.50000000  0.30564406  0.22898401  1
  C  C13  1  0.50000000  0.31564933  0.72893760  1
  C  C14  1  0.50000000  0.30729449  0.35498769  1
  C  C15  1  0.50000000  0.31578225  0.85352315  1
  C  C16  1  0.50000000  0.28182825  0.03973229  1
  C  C17  1  0.50000000  0.28500501  0.54399902  1
  C  C18  1  0.50000000  0.27976241  0.42028346  1
  C  C19  1  0.50000000  0.28545001  0.91619487  1
  C  C20  1  0.50000000  0.27697249  0.16611703  1
  C  C21  1  0.50000000  0.28579982  0.66757663  1
  C  C22  1  0.50000000  0.27616705  0.29367410  1
  C  C23  1  0.50000000  0.28569385  0.79225205  1
  C  C24  1  0.50000000  0.34029660  0.08334652  1
  C  C25  1  0.50000000  0.34630562  0.58350360  1
  C  C26  1  0.50000000  0.34262342  0.45826691  1
  C  C27  1  0.50000000  0.34612673  0.95821188  1
  C  C28  1  0.50000000  0.33660188  0.20847221  1
  C  C29  1  0.50000000  0.34631364  0.70839692  1
  C  C30  1  0.50000000  0.33733906  0.33288547  1
  C  C31  1  0.50000000  0.34633658  0.83275745  1
  C  C32  1  0.50000000  0.36970472  0.10622785  1
  C  C33  1  0.50000000  0.37712425  0.60486900  1
  C  C34  1  0.50000000  0.37451563  0.47801596  1
  C  C35  1  0.50000000  0.37664741  0.97987644  1
  C  C36  1  0.50000000  0.36725615  0.22932185  1
  C  C37  1  0.50000000  0.37711149  0.72927699  1
  C  C38  1  0.50000000  0.36854068  0.35247923  1
  C  C39  1  0.50000000  0.37714000  0.85347315  1
  C  C40  1  0.50000000  0.31279006  0.01953668  1
  C  C41  1  0.50000000  0.31465879  0.52172918  1
  C  C42  1  0.50000000  0.30876153  0.39680827  1
  C  C43  1  0.50000000  0.31585303  0.89531700  1
  C  C44  1  0.50000000  0.30731568  0.14476408  1
  C  C45  1  0.50000000  0.31584102  0.64616152  1
  C  C46  1  0.50000000  0.30564872  0.27078381  1
  C  C47  1  0.50000000  0.31563547  0.77072425  1
  C  C48  1  0.50000000  0.34267789  0.04149669  1
  C  C49  1  0.50000000  0.34611702  0.54152817  1
  C  C50  1  0.50000000  0.34025835  0.41641574  1
  C  C51  1  0.50000000  0.34627040  0.91622059  1
  C  C52  1  0.50000000  0.33734706  0.16688693  1
  C  C53  1  0.50000000  0.34637628  0.66694040  1
  C  C54  1  0.50000000  0.33660551  0.29129617  1
  C  C55  1  0.50000000  0.34628864  0.79129241  1
  C  C56  1  0.50000000  0.40040991  0.08669274  1
  C  C57  1  0.50000000  0.40771614  0.58449704  1
  C  C58  1  0.50000000  0.40242043  0.45244446  1
  C  C59  1  0.50000000  0.40791272  0.95727693  1
  C  C60  1  0.50000000  0.39773583  0.20864202  1
  C  C61  1  0.50000000  0.40782422  0.70875639  1
  C  C62  1  0.50000000  0.39835835  0.33056863  1
  C  C63  1  0.50000000  0.40771539  0.83229040  1
  C  C64  1  0.50000000  0.43824105  0.60621813  1
  C  C65  1  0.50000000  0.43948701  0.97338590  1
  C  C66  1  0.50000000  0.43865364  0.72924529  1
  C  C67  1  0.50000000  0.43840576  0.85241249  1
  C  C68  1  0.50000000  0.37457803  0.02175158  1
  C  C69  1  0.50000000  0.37663067  0.51986527  1
  C  C70  1  0.50000000  0.36968824  0.39355993  1
  C  C71  1  0.50000000  0.37707589  0.89483590  1
  C  C72  1  0.50000000  0.36855339  0.14730745  1
  C  C73  1  0.50000000  0.37718115  0.64623139  1
  C  C74  1  0.50000000  0.36726103  0.27044914  1
  C  C75  1  0.50000000  0.37709573  0.77042429  1
  C  C76  1  0.50000000  0.40248041  0.04736924  1
  C  C77  1  0.50000000  0.40793615  0.54241896  1
  C  C78  1  0.50000000  0.40038479  0.41312411  1
  C  C79  1  0.50000000  0.40766932  0.91520763  1
  C  C80  1  0.50000000  0.39837614  0.16921595  1
  C  C81  1  0.50000000  0.40774545  0.66742573  1
  C  C82  1  0.50000000  0.39773604  0.29113980  1
  C  C83  1  0.50000000  0.40780136  0.79095949  1
  C  C84  1  0.50000000  0.46954650  0.58741337  1
  C  C85  1  0.50000000  0.46942407  0.95265009  1
  C  C86  1  0.50000000  0.46960590  0.70872679  1
  C  C87  1  0.50000000  0.46957814  0.83216468  1
  C  C88  1  0.50000000  0.50085460  0.60612503  1
  C  C89  1  0.50000000  0.49918864  0.97331211  1
  C  C90  1  0.50000000  0.50047447  0.72919605  1
  C  C91  1  0.50000000  0.50062652  0.85245315  1
  C  C92  1  0.50000000  0.43953115  0.52633713  1
  C  C93  1  0.50000000  0.43819870  0.89350427  1
  C  C94  1  0.50000000  0.43843635  0.64730885  1
  C  C95  1  0.50000000  0.43864227  0.77047883  1
  C  C96  1  0.50000000  0.46947023  0.54709621  1
  C  C97  1  0.50000000  0.46949675  0.91233327  1
  C  C98  1  0.50000000  0.46960324  0.66756709  1
  C  C99  1  0.50000000  0.46959341  0.79100505  1
  C  C100  1  0.50000000  0.53682335  0.08635873  1
  C  C101  1  0.50000000  0.53134870  0.58436882  1
  C  C102  1  0.50000000  0.53549474  0.45286526  1
  C  C103  1  0.50000000  0.53095347  0.95728344  1
  C  C104  1  0.50000000  0.53779145  0.20837754  1
  C  C105  1  0.50000000  0.53128673  0.70864726  1
  C  C106  1  0.50000000  0.53754494  0.33104206  1
  C  C107  1  0.50000000  0.53137422  0.83234585  1
  C  C108  1  0.50000000  0.56716555  0.10621709  1
  C  C109  1  0.50000000  0.56218429  0.60461323  1
  C  C110  1  0.50000000  0.56372601  0.47779504  1
  C  C111  1  0.50000000  0.56209660  0.97985914  1
  C  C112  1  0.50000000  0.56808803  0.22926350  1
  C  C113  1  0.50000000  0.56207830  0.72922206  1
  C  C114  1  0.50000000  0.56761790  0.35239502  1
  C  C115  1  0.50000000  0.56201969  0.85361200  1
  C  C116  1  0.50000000  0.49924454  0.52645873  1
  C  C117  1  0.50000000  0.50080633  0.89363303  1
  C  C118  1  0.50000000  0.50065768  0.64730035  1
  C  C119  1  0.50000000  0.50046854  0.77054881  1
  C  C120  1  0.50000000  0.53541843  0.04700449  1
  C  C121  1  0.50000000  0.53100778  0.54250008  1
  C  C122  1  0.50000000  0.53687699  0.41352086  1
  C  C123  1  0.50000000  0.53129462  0.91540340  1
  C  C124  1  0.50000000  0.53751004  0.16886117  1
  C  C125  1  0.50000000  0.53140179  0.66741290  1
  C  C126  1  0.50000000  0.53780349  0.29152380  1
  C  C127  1  0.50000000  0.53127656  0.79110976  1
  C  C128  1  0.50000000  0.59671438  0.08398157  1
  C  C129  1  0.50000000  0.59272541  0.58323884  1
  C  C130  1  0.50000000  0.59517602  0.45777064  1
  C  C131  1  0.50000000  0.59263264  0.95877957  1
  C  C132  1  0.50000000  0.59867858  0.20873224  1
  C  C133  1  0.50000000  0.59266469  0.70838033  1
  C  C134  1  0.50000000  0.59836329  0.33251863  1
  C  C135  1  0.50000000  0.59265965  0.83305091  1
  C  C136  1  0.50000000  0.62778424  0.10434440  1
  C  C137  1  0.50000000  0.62325153  0.60422470  1
  C  C138  1  0.50000000  0.62545218  0.47930310  1
  C  C139  1  0.50000000  0.62405802  0.97918744  1
  C  C140  1  0.50000000  0.62952759  0.22934585  1
  C  C141  1  0.50000000  0.62320461  0.72918844  1
  C  C142  1  0.50000000  0.62865127  0.35417336  1
  C  C143  1  0.50000000  0.62316754  0.85405760  1
  C  C144  1  0.50000000  0.56364960  0.02205988  1
  C  C145  1  0.50000000  0.56217102  0.51997318  1
  C  C146  1  0.50000000  0.56721655  0.39366308  1
  C  C147  1  0.50000000  0.56212738  0.89516335  1
  C  C148  1  0.50000000  0.56757942  0.14749752  1
  C  C149  1  0.50000000  0.56205296  0.64615942  1
  C  C150  1  0.50000000  0.56809491  0.27063204  1
  C  C151  1  0.50000000  0.56207740  0.77054264  1
  C  C152  1  0.50000000  0.59510840  0.04209072  1
  C  C153  1  0.50000000  0.59270900  0.54104843  1
  C  C154  1  0.50000000  0.59676719  0.41588687  1
  C  C155  1  0.50000000  0.59264725  0.91658534  1
  C  C156  1  0.50000000  0.59833734  0.16736753  1
  C  C157  1  0.50000000  0.59267165  0.66675001  1
  C  C158  1  0.50000000  0.59869208  0.29114930  1
  C  C159  1  0.50000000  0.59266594  0.79140681  1
  C  C160  1  0.50000000  0.65802034  0.08270885  1
  C  C161  1  0.50000000  0.65436359  0.58364996  1
  C  C162  1  0.50000000  0.65680952  0.45885728  1
  C  C163  1  0.50000000  0.65471195  0.95777055  1
  C  C164  1  0.50000000  0.66014160  0.20806505  1
  C  C165  1  0.50000000  0.65394943  0.70827246  1
  C  C166  1  0.50000000  0.65968524  0.33360642  1
  C  C167  1  0.50000000  0.65393697  0.83301203  1
  C  C168  1  0.50000000  0.68903300  0.10290501  1
  C  C169  1  0.50000000  0.68480108  0.60458107  1
  C  C170  1  0.50000000  0.68696108  0.48019649  1
  C  C171  1  0.50000000  0.68578775  0.97786175  1
  C  C172  1  0.50000000  0.69082344  0.22884231  1
  C  C173  1  0.50000000  0.68453810  0.72897443  1
  C  C174  1  0.50000000  0.68996897  0.35490518  1
  C  C175  1  0.50000000  0.68463320  0.85345652  1
  C  C176  1  0.50000000  0.62538210  0.02053903  1
  C  C177  1  0.50000000  0.62413274  0.52064273  1
  C  C178  1  0.50000000  0.62783556  0.39552459  1
  C  C179  1  0.50000000  0.62318881  0.89561786  1
  C  C180  1  0.50000000  0.62861950  0.14569655  1
  C  C181  1  0.50000000  0.62319976  0.64578455  1
  C  C182  1  0.50000000  0.62953808  0.27053305  1
  C  C183  1  0.50000000  0.62320998  0.77058451  1
  C  C184  1  0.50000000  0.65674767  0.04099261  1
  C  C185  1  0.50000000  0.65477990  0.54207294  1
  C  C186  1  0.50000000  0.65808039  0.41714781  1
  C  C187  1  0.50000000  0.65431371  0.91618525  1
  C  C188  1  0.50000000  0.65965671  0.16625462  1
  C  C189  1  0.50000000  0.65395800  0.66678275  1
  C  C190  1  0.50000000  0.66015823  0.29179015  1
  C  C191  1  0.50000000  0.65397322  0.79148542  1
  C  C192  1  0.50000000  0.71842713  0.08027970  1
  C  C193  1  0.50000000  0.71504775  0.58370274  1
  C  C194  1  0.50000000  0.71745199  0.45939708  1
  C  C195  1  0.50000000  0.71545620  0.95586491  1
  C  C196  1  0.50000000  0.72051765  0.20645869  1
  C  C197  1  0.50000000  0.71452023  0.70772276  1
  C  C198  1  0.50000000  0.72013040  0.33335126  1
  C  C199  1  0.50000000  0.71456501  0.83197327  1
  C  C200  1  0.50000000  0.68690045  0.01965871  1
  C  C201  1  0.50000000  0.68585418  0.52198018  1
  C  C202  1  0.50000000  0.68908175  0.39693862  1
  C  C203  1  0.50000000  0.68474330  0.89524846  1
  C  C204  1  0.50000000  0.68992862  0.14494074  1
  C  C205  1  0.50000000  0.68467137  0.64637020  1
  C  C206  1  0.50000000  0.69083879  0.27100717  1
  C  C207  1  0.50000000  0.68457656  0.77077946  1
  C  C208  1  0.50000000  0.71740201  0.04044924  1
  C  C209  1  0.50000000  0.71551362  0.54398369  1
  C  C210  1  0.50000000  0.71847651  0.41956813  1
  C  C211  1  0.50000000  0.71498664  0.91614097  1
  C  C212  1  0.50000000  0.72008733  0.16648788  1
  C  C213  1  0.50000000  0.71458195  0.66788056  1
  C  C214  1  0.50000000  0.72054352  0.29336936  1
  C  C215  1  0.50000000  0.71454746  0.79213954  1
  H  H216  1  0.50000000  0.25511598  0.09277691  1
  H  H217  1  0.50000000  0.26171076  0.59883844  1
  H  H218  1  0.50000000  0.25844462  0.47622656  1
  H  H219  1  0.50000000  0.26086797  0.97016692  1
  H  H220  1  0.50000000  0.25177770  0.22018897  1
  H  H221  1  0.50000000  0.26174275  0.72230585  1
  H  H222  1  0.50000000  0.25316938  0.34900156  1
  H  H223  1  0.50000000  0.26177491  0.84696854  1
  H  H224  1  0.50000000  0.25847935  0.02354232  1
  H  H225  1  0.50000000  0.26081617  0.52967610  1
  H  H226  1  0.50000000  0.25507933  0.40692303  1
  H  H227  1  0.50000000  0.26167517  0.90092683  1
  H  H228  1  0.50000000  0.25318625  0.15075426  1
  H  H229  1  0.50000000  0.26184914  0.65263530  1
  H  H230  1  0.50000000  0.25178291  0.27958158  1
  H  H231  1  0.50000000  0.26172404  0.77730370  1
  H  H232  1  0.50000000  0.74274852  0.09440628  1
  H  H233  1  0.50000000  0.73882542  0.59896873  1
  H  H234  1  0.50000000  0.74115966  0.47488115  1
  H  H235  1  0.50000000  0.73959429  0.97034204  1
  H  H236  1  0.50000000  0.74474505  0.22088625  1
  H  H237  1  0.50000000  0.73842004  0.72276815  1
  H  H238  1  0.50000000  0.74405352  0.34846849  1
  H  H239  1  0.50000000  0.73855876  0.84681231  1
  H  H240  1  0.50000000  0.74108200  0.02491955  1
  H  H241  1  0.50000000  0.73966106  0.52955309  1
  H  H242  1  0.50000000  0.74279192  0.40542757  1
  H  H243  1  0.50000000  0.73876266  0.90086674  1
  H  H244  1  0.50000000  0.74400226  0.15136178  1
  H  H245  1  0.50000000  0.73858867  0.65306825  1
  H  H246  1  0.50000000  0.74475440  0.27889412  1
  H  H247  1  0.50000000  0.73847826  0.77715507  1
  H  H248  1  0.50000000  0.42388108  0.10259492  1
  H  H249  1  0.50000000  0.42774193  0.46214483  1
  H  H250  1  0.50000000  0.42145141  0.22396980  1
  H  H251  1  0.50000000  0.42249313  0.34493388  1
  H  H252  1  0.50000000  0.44396307  0.00388884  1
  H  H253  1  0.50000000  0.42783749  0.03775973  1
  H  H254  1  0.50000000  0.42387363  0.39726214  1
  H  H255  1  0.50000000  0.42253403  0.15489188  1
  H  H256  1  0.50000000  0.42145931  0.27583198  1
  H  H257  1  0.50000000  0.49448252  0.00370430  1
  H  H258  1  0.50000000  0.44407970  0.49584486  1
  H  H259  1  0.50000000  0.51326911  0.10204110  1
  H  H260  1  0.50000000  0.51029467  0.46276512  1
  H  H261  1  0.50000000  0.51398849  0.22354188  1
  H  H262  1  0.50000000  0.51350628  0.34567788  1
  H  H263  1  0.50000000  0.49453470  0.49607262  1
  H  H264  1  0.50000000  0.51020727  0.03712619  1
  H  H265  1  0.50000000  0.51329619  0.39789885  1
  H  H266  1  0.50000000  0.51345679  0.15424683  1
  H  H267  1  0.50000000  0.51398293  0.27639090  1
