# generated using pymatgen
data_H17C108
_symmetry_space_group_name_H-M   'P 1'
_cell_length_a   20.00000000
_cell_length_b   40.19450000
_cell_length_c   34.36491627
_cell_angle_alpha   90.00000000
_cell_angle_beta   90.00000000
_cell_angle_gamma   90.00000000
_symmetry_Int_Tables_number   1
_chemical_formula_structural   H17C108
_chemical_formula_sum   'H34 C216'
_cell_volume   27625.61254146
_cell_formula_units_Z   2
loop_
 _symmetry_equiv_pos_site_id
 _symmetry_equiv_pos_as_xyz
  1  'x, y, z'
loop_
 _atom_site_type_symbol
 _atom_site_label
 _atom_site_symmetry_multiplicity
 _atom_site_fract_x
 _atom_site_fract_y
 _atom_site_fract_z
 _atom_site_occupancy
  C  C0  1  0.50000000  0.28561065  0.08247974  1
  C  C1  1  0.50000000  0.28557467  0.58245060  1
  C  C2  1  0.50000000  0.28557731  0.45744125  1
  C  C3  1  0.50000000  0.28560226  0.95742921  1
  C  C4  1  0.50000000  0.28567160  0.20740261  1
  C  C5  1  0.50000000  0.28567138  0.70745980  1
  C  C6  1  0.50000000  0.28568670  0.33247502  1
  C  C7  1  0.50000000  0.28568068  0.83245912  1
  C  C8  1  0.50000000  0.31563406  0.10389562  1
  C  C9  1  0.50000000  0.31558380  0.60393896  1
  C  C10  1  0.50000000  0.31555712  0.47892959  1
  C  C11  1  0.50000000  0.31559730  0.97888444  1
  C  C12  1  0.50000000  0.31565825  0.22892297  1
  C  C13  1  0.50000000  0.31564489  0.72894470  1
  C  C14  1  0.50000000  0.31566223  0.35394878  1
  C  C15  1  0.50000000  0.31565617  0.85393176  1
  C  C16  1  0.50000000  0.28558399  0.04241289  1
  C  C17  1  0.50000000  0.28557513  0.54238334  1
  C  C18  1  0.50000000  0.28560914  0.41735567  1
  C  C19  1  0.50000000  0.28562752  0.91735094  1
  C  C20  1  0.50000000  0.28568023  0.16734080  1
  C  C21  1  0.50000000  0.28566969  0.66740401  1
  C  C22  1  0.50000000  0.28571020  0.29240043  1
  C  C23  1  0.50000000  0.28568040  0.79239618  1
  C  C24  1  0.50000000  0.34629428  0.08322461  1
  C  C25  1  0.50000000  0.34625931  0.58328298  1
  C  C26  1  0.50000000  0.34624533  0.45829104  1
  C  C27  1  0.50000000  0.34627942  0.95822893  1
  C  C28  1  0.50000000  0.34633947  0.20825550  1
  C  C29  1  0.50000000  0.34632479  0.70828868  1
  C  C30  1  0.50000000  0.34634387  0.33328140  1
  C  C31  1  0.50000000  0.34632925  0.83324784  1
  C  C32  1  0.50000000  0.37717910  0.10413602  1
  C  C33  1  0.50000000  0.37714716  0.60420826  1
  C  C34  1  0.50000000  0.37710992  0.47921535  1
  C  C35  1  0.50000000  0.37715381  0.97912015  1
  C  C36  1  0.50000000  0.37724183  0.22915813  1
  C  C37  1  0.50000000  0.37722006  0.72917423  1
  C  C38  1  0.50000000  0.37720849  0.35419613  1
  C  C39  1  0.50000000  0.37721577  0.85413109  1
  C  C40  1  0.50000000  0.31557202  0.02089406  1
  C  C41  1  0.50000000  0.31556376  0.52091212  1
  C  C42  1  0.50000000  0.31562411  0.39593302  1
  C  C43  1  0.50000000  0.31563349  0.89590495  1
  C  C44  1  0.50000000  0.31566552  0.14588328  1
  C  C45  1  0.50000000  0.31564870  0.64594145  1
  C  C46  1  0.50000000  0.31569991  0.27094518  1
  C  C47  1  0.50000000  0.31565162  0.77090638  1
  C  C48  1  0.50000000  0.34626425  0.04154135  1
  C  C49  1  0.50000000  0.34623822  0.54160100  1
  C  C50  1  0.50000000  0.34628194  0.41660581  1
  C  C51  1  0.50000000  0.34630621  0.91655343  1
  C  C52  1  0.50000000  0.34633502  0.16656558  1
  C  C53  1  0.50000000  0.34631975  0.66661353  1
  C  C54  1  0.50000000  0.34637001  0.29159658  1
  C  C55  1  0.50000000  0.34633252  0.79156667  1
  C  C56  1  0.50000000  0.40782680  0.08328680  1
  C  C57  1  0.50000000  0.40781312  0.58339858  1
  C  C58  1  0.50000000  0.40776879  0.45838374  1
  C  C59  1  0.50000000  0.40781368  0.95825075  1
  C  C60  1  0.50000000  0.40789761  0.20832186  1
  C  C61  1  0.50000000  0.40789573  0.70834591  1
  C  C62  1  0.50000000  0.40787900  0.33337370  1
  C  C63  1  0.50000000  0.40789575  0.83329860  1
  C  C64  1  0.50000000  0.43848772  0.10406957  1
  C  C65  1  0.50000000  0.43848191  0.60419756  1
  C  C66  1  0.50000000  0.43838839  0.47920406  1
  C  C67  1  0.50000000  0.43846385  0.97902723  1
  C  C68  1  0.50000000  0.43855121  0.22911814  1
  C  C69  1  0.50000000  0.43858292  0.72912294  1
  C  C70  1  0.50000000  0.43850040  0.35417216  1
  C  C71  1  0.50000000  0.43856824  0.85405746  1
  C  C72  1  0.50000000  0.37713966  0.02062511  1
  C  C73  1  0.50000000  0.37711874  0.52072286  1
  C  C74  1  0.50000000  0.37717037  0.39570779  1
  C  C75  1  0.50000000  0.37718961  0.89563686  1
  C  C76  1  0.50000000  0.37720882  0.14565144  1
  C  C77  1  0.50000000  0.37719352  0.64571524  1
  C  C78  1  0.50000000  0.37725570  0.27068799  1
  C  C79  1  0.50000000  0.37722720  0.77068117  1
  C  C80  1  0.50000000  0.40779745  0.04146803  1
  C  C81  1  0.50000000  0.40777307  0.54160021  1
  C  C82  1  0.50000000  0.40780880  0.41656533  1
  C  C83  1  0.50000000  0.40785646  0.91644922  1
  C  C84  1  0.50000000  0.40788186  0.16648424  1
  C  C85  1  0.50000000  0.40787101  0.66655817  1
  C  C86  1  0.50000000  0.40790094  0.29153510  1
  C  C87  1  0.50000000  0.40790560  0.79151137  1
  C  C88  1  0.50000000  0.46926255  0.08314678  1
  C  C89  1  0.50000000  0.46927517  0.58334207  1
  C  C90  1  0.50000000  0.46916552  0.45831871  1
  C  C91  1  0.50000000  0.46925777  0.95810746  1
  C  C92  1  0.50000000  0.46935868  0.20821464  1
  C  C93  1  0.50000000  0.46939875  0.70826319  1
  C  C94  1  0.50000000  0.46932194  0.33327881  1
  C  C95  1  0.50000000  0.46939042  0.83318231  1
  C  C96  1  0.50000000  0.49997271  0.10394510  1
  C  C97  1  0.50000000  0.49997984  0.60417041  1
  C  C98  1  0.50000000  0.49978538  0.47919079  1
  C  C99  1  0.50000000  0.49992602  0.97890621  1
  C  C100  1  0.50000000  0.50002634  0.22902074  1
  C  C101  1  0.50000000  0.50011619  0.72906115  1
  C  C102  1  0.50000000  0.49996071  0.35409190  1
  C  C103  1  0.50000000  0.50008668  0.85396718  1
  C  C104  1  0.50000000  0.43842779  0.02065882  1
  C  C105  1  0.50000000  0.43842002  0.52083315  1
  C  C106  1  0.50000000  0.43847000  0.39579856  1
  C  C107  1  0.50000000  0.43852657  0.89566483  1
  C  C108  1  0.50000000  0.43851655  0.14570119  1
  C  C109  1  0.50000000  0.43853925  0.64580506  1
  C  C110  1  0.50000000  0.43855229  0.27074671  1
  C  C111  1  0.50000000  0.43859043  0.77074150  1
  C  C112  1  0.50000000  0.46921162  0.04155838  1
  C  C113  1  0.50000000  0.46920330  0.54176850  1
  C  C114  1  0.50000000  0.46922852  0.41673455  1
  C  C115  1  0.50000000  0.46932200  0.91652888  1
  C  C116  1  0.50000000  0.46934132  0.16660458  1
  C  C117  1  0.50000000  0.46936347  0.66668923  1
  C  C118  1  0.50000000  0.46935356  0.29166366  1
  C  C119  1  0.50000000  0.46941026  0.79160449  1
  C  C120  1  0.50000000  0.53053981  0.08311071  1
  C  C121  1  0.50000000  0.53063496  0.58338441  1
  C  C122  1  0.50000000  0.53038950  0.45839161  1
  C  C123  1  0.50000000  0.53056645  0.95806336  1
  C  C124  1  0.50000000  0.53066687  0.20820603  1
  C  C125  1  0.50000000  0.53081656  0.70828349  1
  C  C126  1  0.50000000  0.53060545  0.33328221  1
  C  C127  1  0.50000000  0.53080290  0.83318444  1
  C  C128  1  0.50000000  0.56147362  0.10400094  1
  C  C129  1  0.50000000  0.56151289  0.60427423  1
  C  C130  1  0.50000000  0.56108582  0.47939296  1
  C  C131  1  0.50000000  0.56137244  0.97896013  1
  C  C132  1  0.50000000  0.56156170  0.22913634  1
  C  C133  1  0.50000000  0.56167131  0.72913772  1
  C  C134  1  0.50000000  0.56145505  0.35423097  1
  C  C135  1  0.50000000  0.56162819  0.85405493  1
  C  C136  1  0.50000000  0.49985045  0.02070338  1
  C  C137  1  0.50000000  0.49986018  0.52097902  1
  C  C138  1  0.50000000  0.49993382  0.39595806  1
  C  C139  1  0.50000000  0.50002842  0.89571519  1
  C  C140  1  0.50000000  0.49999178  0.14581844  1
  C  C141  1  0.50000000  0.50005665  0.64591644  1
  C  C142  1  0.50000000  0.50002633  0.27088059  1
  C  C143  1  0.50000000  0.50012431  0.77081204  1
  C  C144  1  0.50000000  0.53046276  0.04151842  1
  C  C145  1  0.50000000  0.53048598  0.54183397  1
  C  C146  1  0.50000000  0.53048500  0.41680167  1
  C  C147  1  0.50000000  0.53069239  0.91650813  1
  C  C148  1  0.50000000  0.53062707  0.16664948  1
  C  C149  1  0.50000000  0.53077378  0.66670453  1
  C  C150  1  0.50000000  0.53065183  0.29173187  1
  C  C151  1  0.50000000  0.53082785  0.79159988  1
  C  C152  1  0.50000000  0.59209023  0.08330040  1
  C  C153  1  0.50000000  0.59216435  0.58351309  1
  C  C154  1  0.50000000  0.59185253  0.45885335  1
  C  C155  1  0.50000000  0.59205319  0.95810341  1
  C  C156  1  0.50000000  0.59223603  0.20845640  1
  C  C157  1  0.50000000  0.59237046  0.70834642  1
  C  C158  1  0.50000000  0.59213516  0.33359522  1
  C  C159  1  0.50000000  0.59239032  0.83337864  1
  C  C160  1  0.50000000  0.62204386  0.10479036  1
  C  C161  1  0.50000000  0.62300932  0.60410064  1
  C  C162  1  0.50000000  0.62145422  0.48014367  1
  C  C163  1  0.50000000  0.62260348  0.97917519  1
  C  C164  1  0.50000000  0.62221518  0.22995942  1
  C  C165  1  0.50000000  0.62306173  0.72916166  1
  C  C166  1  0.50000000  0.62205226  0.35508018  1
  C  C167  1  0.50000000  0.62305620  0.85429022  1
  C  C168  1  0.50000000  0.56118108  0.02052004  1
  C  C169  1  0.50000000  0.56127451  0.52093661  1
  C  C170  1  0.50000000  0.56141597  0.39591822  1
  C  C171  1  0.50000000  0.56157343  0.89562801  1
  C  C172  1  0.50000000  0.56148123  0.14570410  1
  C  C173  1  0.50000000  0.56158989  0.64584079  1
  C  C174  1  0.50000000  0.56155252  0.27082947  1
  C  C175  1  0.50000000  0.56168128  0.77075458  1
  C  C176  1  0.50000000  0.59195550  0.04107243  1
  C  C177  1  0.50000000  0.59195219  0.54179387  1
  C  C178  1  0.50000000  0.59200960  0.41663495  1
  C  C179  1  0.50000000  0.59223839  0.91638009  1
  C  C180  1  0.50000000  0.59215311  0.16638315  1
  C  C181  1  0.50000000  0.59235538  0.66651040  1
  C  C182  1  0.50000000  0.59221490  0.29152620  1
  C  C183  1  0.50000000  0.59238774  0.79154309  1
  C  C184  1  0.50000000  0.65397114  0.58302450  1
  C  C185  1  0.50000000  0.65419246  0.95836984  1
  C  C186  1  0.50000000  0.65395946  0.70818532  1
  C  C187  1  0.50000000  0.65404332  0.83339014  1
  C  C188  1  0.50000000  0.68486678  0.60358654  1
  C  C189  1  0.50000000  0.68482267  0.97815326  1
  C  C190  1  0.50000000  0.68463025  0.72887690  1
  C  C191  1  0.50000000  0.68472450  0.85397895  1
  C  C192  1  0.50000000  0.62156925  0.01976323  1
  C  C193  1  0.50000000  0.62247766  0.52071456  1
  C  C194  1  0.50000000  0.62198335  0.39519981  1
  C  C195  1  0.50000000  0.62307097  0.89577700  1
  C  C196  1  0.50000000  0.62207695  0.14491842  1
  C  C197  1  0.50000000  0.62301077  0.64558890  1
  C  C198  1  0.50000000  0.62220513  0.27005958  1
  C  C199  1  0.50000000  0.62307386  0.77072520  1
  C  C200  1  0.50000000  0.65406201  0.54147840  1
  C  C201  1  0.50000000  0.65404838  0.91681575  1
  C  C202  1  0.50000000  0.65399675  0.66648945  1
  C  C203  1  0.50000000  0.65398037  0.79168845  1
  C  C204  1  0.50000000  0.71479933  0.58231835  1
  C  C205  1  0.50000000  0.71483138  0.95789035  1
  C  C206  1  0.50000000  0.71458342  0.70741852  1
  C  C207  1  0.50000000  0.71463394  0.83248763  1
  C  C208  1  0.50000000  0.68465628  0.52162615  1
  C  C209  1  0.50000000  0.68491921  0.89620972  1
  C  C210  1  0.50000000  0.68466874  0.64584246  1
  C  C211  1  0.50000000  0.68464096  0.77097401  1
  C  C212  1  0.50000000  0.71468282  0.54184634  1
  C  C213  1  0.50000000  0.71488412  0.91741906  1
  C  C214  1  0.50000000  0.71458170  0.66732380  1
  C  C215  1  0.50000000  0.71461405  0.79239643  1
  H  H216  1  0.50000000  0.26169790  0.09760584  1
  H  H217  1  0.50000000  0.26165199  0.59757154  1
  H  H218  1  0.50000000  0.26163627  0.47250903  1
  H  H219  1  0.50000000  0.26166076  0.97250784  1
  H  H220  1  0.50000000  0.26167567  0.22233528  1
  H  H221  1  0.50000000  0.26167657  0.72236896  1
  H  H222  1  0.50000000  0.26170787  0.34745222  1
  H  H223  1  0.50000000  0.26171537  0.84744955  1
  H  H224  1  0.50000000  0.26165522  0.02732211  1
  H  H225  1  0.50000000  0.26163864  0.52730861  1
  H  H226  1  0.50000000  0.26170518  0.40219750  1
  H  H227  1  0.50000000  0.26171386  0.90222839  1
  H  H228  1  0.50000000  0.26170418  0.15236030  1
  H  H229  1  0.50000000  0.26170285  0.65241181  1
  H  H230  1  0.50000000  0.26172788  0.27744296  1
  H  H231  1  0.50000000  0.26169224  0.77746973  1
  H  H232  1  0.50000000  0.73874076  0.59736248  1
  H  H233  1  0.50000000  0.73845708  0.97380168  1
  H  H234  1  0.50000000  0.73856730  0.72236235  1
  H  H235  1  0.50000000  0.73860748  0.84746785  1
  H  H236  1  0.50000000  0.73828614  0.52589412  1
  H  H237  1  0.50000000  0.73877572  0.90227314  1
  H  H238  1  0.50000000  0.73855814  0.65234857  1
  H  H239  1  0.50000000  0.73858442  0.77741972  1
  H  H240  1  0.50000000  0.64608978  0.08992769  1
  H  H241  1  0.50000000  0.64485492  0.46428005  1
  H  H242  1  0.50000000  0.64617080  0.21489482  1
  H  H243  1  0.50000000  0.64603137  0.34010028  1
  H  H244  1  0.50000000  0.68565744  0.00995735  1
  H  H245  1  0.50000000  0.64497759  0.03562830  1
  H  H246  1  0.50000000  0.64599470  0.41014522  1
  H  H247  1  0.50000000  0.64603742  0.15995031  1
  H  H248  1  0.50000000  0.64614313  0.28515919  1
  H  H249  1  0.50000000  0.68542844  0.48982463  1
