# generated using pymatgen
data_H25C108
_symmetry_space_group_name_H-M   'P 1'
_cell_length_a   20.00000000
_cell_length_b   40.19450000
_cell_length_c   34.46237275
_cell_angle_alpha   90.00000000
_cell_angle_beta   90.00000000
_cell_angle_gamma   90.00000000
_symmetry_Int_Tables_number   1
_chemical_formula_structural   H25C108
_chemical_formula_sum   'H50 C216'
_cell_volume   27703.95682978
_cell_formula_units_Z   2
loop_
 _symmetry_equiv_pos_site_id
 _symmetry_equiv_pos_as_xyz
  1  'x, y, z'
loop_
 _atom_site_type_symbol
 _atom_site_label
 _atom_site_symmetry_multiplicity
 _atom_site_fract_x
 _atom_site_fract_y
 _atom_site_fract_z
 _atom_site_occupancy
  C  C0  1  0.50000000  0.28575995  0.08241339  1
  C  C1  1  0.50000000  0.28553761  0.58256751  1
  C  C2  1  0.50000000  0.28569371  0.45748959  1
  C  C3  1  0.50000000  0.28557458  0.95732905  1
  C  C4  1  0.50000000  0.28589803  0.20740233  1
  C  C5  1  0.50000000  0.28552165  0.70746384  1
  C  C6  1  0.50000000  0.28589607  0.33252030  1
  C  C7  1  0.50000000  0.28553212  0.83241034  1
  C  C8  1  0.50000000  0.31570413  0.10377834  1
  C  C9  1  0.50000000  0.31545667  0.60400717  1
  C  C10  1  0.50000000  0.31553016  0.47903342  1
  C  C11  1  0.50000000  0.31550810  0.97877599  1
  C  C12  1  0.50000000  0.31574371  0.22887703  1
  C  C13  1  0.50000000  0.31546100  0.72892164  1
  C  C14  1  0.50000000  0.31574054  0.35398431  1
  C  C15  1  0.50000000  0.31548826  0.85382934  1
  C  C16  1  0.50000000  0.28568546  0.04233809  1
  C  C17  1  0.50000000  0.28558893  0.54253871  1
  C  C18  1  0.50000000  0.28580112  0.41743084  1
  C  C19  1  0.50000000  0.28554391  0.91727684  1
  C  C20  1  0.50000000  0.28587673  0.16729925  1
  C  C21  1  0.50000000  0.28553046  0.66745955  1
  C  C22  1  0.50000000  0.28590634  0.29241267  1
  C  C23  1  0.50000000  0.28551129  0.79239202  1
  C  C24  1  0.50000000  0.34635692  0.08307467  1
  C  C25  1  0.50000000  0.34614307  0.58337872  1
  C  C26  1  0.50000000  0.34626227  0.45841352  1
  C  C27  1  0.50000000  0.34616030  0.95807155  1
  C  C28  1  0.50000000  0.34645317  0.20818378  1
  C  C29  1  0.50000000  0.34613849  0.70827816  1
  C  C30  1  0.50000000  0.34646318  0.33333622  1
  C  C31  1  0.50000000  0.34615160  0.83316179  1
  C  C32  1  0.50000000  0.37728701  0.10386943  1
  C  C33  1  0.50000000  0.37697574  0.60432386  1
  C  C34  1  0.50000000  0.37707682  0.47935821  1
  C  C35  1  0.50000000  0.37707226  0.97885803  1
  C  C36  1  0.50000000  0.37728458  0.22904019  1
  C  C37  1  0.50000000  0.37700694  0.72916122  1
  C  C38  1  0.50000000  0.37728291  0.35422858  1
  C  C39  1  0.50000000  0.37702287  0.85399099  1
  C  C40  1  0.50000000  0.31555209  0.02082931  1
  C  C41  1  0.50000000  0.31550835  0.52107285  1
  C  C42  1  0.50000000  0.31571939  0.39604117  1
  C  C43  1  0.50000000  0.31547804  0.89583093  1
  C  C44  1  0.50000000  0.31571879  0.14584109  1
  C  C45  1  0.50000000  0.31547355  0.64601674  1
  C  C46  1  0.50000000  0.31574312  0.27094175  1
  C  C47  1  0.50000000  0.31545542  0.77092902  1
  C  C48  1  0.50000000  0.34628938  0.04142990  1
  C  C49  1  0.50000000  0.34616084  0.54176817  1
  C  C50  1  0.50000000  0.34635521  0.41677031  1
  C  C51  1  0.50000000  0.34616582  0.91646334  1
  C  C52  1  0.50000000  0.34644290  0.16650092  1
  C  C53  1  0.50000000  0.34613543  0.66667115  1
  C  C54  1  0.50000000  0.34645386  0.29164927  1
  C  C55  1  0.50000000  0.34614372  0.79155432  1
  C  C56  1  0.50000000  0.40772583  0.08303213  1
  C  C57  1  0.50000000  0.40759506  0.58363247  1
  C  C58  1  0.50000000  0.40766764  0.45864735  1
  C  C59  1  0.50000000  0.40756120  0.95793281  1
  C  C60  1  0.50000000  0.40776751  0.20818148  1
  C  C61  1  0.50000000  0.40763146  0.70840429  1
  C  C62  1  0.50000000  0.40779319  0.33345579  1
  C  C63  1  0.50000000  0.40760753  0.83314645  1
  C  C64  1  0.50000000  0.43860334  0.10381217  1
  C  C65  1  0.50000000  0.43827288  0.60451709  1
  C  C66  1  0.50000000  0.43824038  0.47966466  1
  C  C67  1  0.50000000  0.43835044  0.97864046  1
  C  C68  1  0.50000000  0.43857184  0.22907135  1
  C  C69  1  0.50000000  0.43832597  0.72916150  1
  C  C70  1  0.50000000  0.43860738  0.35433875  1
  C  C71  1  0.50000000  0.43833060  0.85380217  1
  C  C72  1  0.50000000  0.37710119  0.02047515  1
  C  C73  1  0.50000000  0.37706728  0.52097178  1
  C  C74  1  0.50000000  0.37728606  0.39598671  1
  C  C75  1  0.50000000  0.37699720  0.89551438  1
  C  C76  1  0.50000000  0.37727016  0.14562239  1
  C  C77  1  0.50000000  0.37700198  0.64584433  1
  C  C78  1  0.50000000  0.37729122  0.27080663  1
  C  C79  1  0.50000000  0.37700780  0.77066316  1
  C  C80  1  0.50000000  0.40768428  0.04120657  1
  C  C81  1  0.50000000  0.40754710  0.54190124  1
  C  C82  1  0.50000000  0.40772185  0.41682327  1
  C  C83  1  0.50000000  0.40761875  0.91619647  1
  C  C84  1  0.50000000  0.40777558  0.16641023  1
  C  C85  1  0.50000000  0.40759048  0.66668253  1
  C  C86  1  0.50000000  0.40777769  0.29168522  1
  C  C87  1  0.50000000  0.40763743  0.79141643  1
  C  C88  1  0.50000000  0.46930312  0.08300917  1
  C  C89  1  0.50000000  0.46905188  0.58385919  1
  C  C90  1  0.50000000  0.46923363  0.45922702  1
  C  C91  1  0.50000000  0.46899296  0.95757515  1
  C  C92  1  0.50000000  0.46925597  0.20835813  1
  C  C93  1  0.50000000  0.46912470  0.70840389  1
  C  C94  1  0.50000000  0.46929494  0.33362425  1
  C  C95  1  0.50000000  0.46908717  0.83292139  1
  C  C96  1  0.50000000  0.49906769  0.10456488  1
  C  C97  1  0.50000000  0.49968370  0.60467733  1
  C  C98  1  0.50000000  0.49866203  0.48060196  1
  C  C99  1  0.50000000  0.49961409  0.97834784  1
  C  C100  1  0.50000000  0.49907231  0.22988425  1
  C  C101  1  0.50000000  0.49980658  0.72910455  1
  C  C102  1  0.50000000  0.49908211  0.35517646  1
  C  C103  1  0.50000000  0.49977860  0.85358860  1
  C  C104  1  0.50000000  0.43826525  0.02019049  1
  C  C105  1  0.50000000  0.43833466  0.52119730  1
  C  C106  1  0.50000000  0.43861895  0.39607221  1
  C  C107  1  0.50000000  0.43829361  0.89530966  1
  C  C108  1  0.50000000  0.43859220  0.14553730  1
  C  C109  1  0.50000000  0.43831259  0.64602148  1
  C  C110  1  0.50000000  0.43858230  0.27079929  1
  C  C111  1  0.50000000  0.43832772  0.77064469  1
  C  C112  1  0.50000000  0.46926549  0.04063509  1
  C  C113  1  0.50000000  0.46898783  0.54225408  1
  C  C114  1  0.50000000  0.46931591  0.41690211  1
  C  C115  1  0.50000000  0.46906943  0.91596587  1
  C  C116  1  0.50000000  0.46927186  0.16626378  1
  C  C117  1  0.50000000  0.46907662  0.66688773  1
  C  C118  1  0.50000000  0.46927165  0.29152386  1
  C  C119  1  0.50000000  0.46913000  0.79139899  1
  C  C120  1  0.50000000  0.53054366  0.58405128  1
  C  C121  1  0.50000000  0.53075832  0.95713244  1
  C  C122  1  0.50000000  0.53057050  0.70838136  1
  C  C123  1  0.50000000  0.53056362  0.83284659  1
  C  C124  1  0.50000000  0.56141668  0.60466198  1
  C  C125  1  0.50000000  0.56151659  0.97639086  1
  C  C126  1  0.50000000  0.56139578  0.72913144  1
  C  C127  1  0.50000000  0.56141111  0.85356299  1
  C  C128  1  0.50000000  0.49868578  0.01918717  1
  C  C129  1  0.50000000  0.49959651  0.52144837  1
  C  C130  1  0.50000000  0.49907642  0.39535218  1
  C  C131  1  0.50000000  0.49969421  0.89513132  1
  C  C132  1  0.50000000  0.49905946  0.14472201  1
  C  C133  1  0.50000000  0.49976975  0.64622092  1
  C  C134  1  0.50000000  0.49908121  0.26999439  1
  C  C135  1  0.50000000  0.49981211  0.77070020  1
  C  C136  1  0.50000000  0.53074229  0.54267618  1
  C  C137  1  0.50000000  0.53054835  0.91576271  1
  C  C138  1  0.50000000  0.53055855  0.66695363  1
  C  C139  1  0.50000000  0.53057831  0.79141612  1
  C  C140  1  0.50000000  0.59220995  0.58403982  1
  C  C141  1  0.50000000  0.59197750  0.95726791  1
  C  C142  1  0.50000000  0.59210780  0.70841422  1
  C  C143  1  0.50000000  0.59209269  0.83298255  1
  C  C144  1  0.50000000  0.62368578  0.10455524  1
  C  C145  1  0.50000000  0.62300996  0.60467732  1
  C  C146  1  0.50000000  0.62422378  0.48069629  1
  C  C147  1  0.50000000  0.62339098  0.97872426  1
  C  C148  1  0.50000000  0.62347243  0.22989331  1
  C  C149  1  0.50000000  0.62285636  0.72922556  1
  C  C150  1  0.50000000  0.62349421  0.35528219  1
  C  C151  1  0.50000000  0.62293025  0.85386009  1
  C  C152  1  0.50000000  0.56148252  0.52338324  1
  C  C153  1  0.50000000  0.56141498  0.89513008  1
  C  C154  1  0.50000000  0.56141022  0.64623615  1
  C  C155  1  0.50000000  0.56140094  0.77065891  1
  C  C156  1  0.50000000  0.59193550  0.54250512  1
  C  C157  1  0.50000000  0.59222038  0.91573255  1
  C  C158  1  0.50000000  0.59209351  0.66680918  1
  C  C159  1  0.50000000  0.59210885  0.79138067  1
  C  C160  1  0.50000000  0.65380019  0.08283551  1
  C  C161  1  0.50000000  0.65399286  0.58366749  1
  C  C162  1  0.50000000  0.65397391  0.45899205  1
  C  C163  1  0.50000000  0.65418073  0.95772521  1
  C  C164  1  0.50000000  0.65359930  0.20817043  1
  C  C165  1  0.50000000  0.65376857  0.70836409  1
  C  C166  1  0.50000000  0.65353915  0.33344717  1
  C  C167  1  0.50000000  0.65380526  0.83301410  1
  C  C168  1  0.50000000  0.68436788  0.10365488  1
  C  C169  1  0.50000000  0.68455412  0.60425725  1
  C  C170  1  0.50000000  0.68482775  0.47935114  1
  C  C171  1  0.50000000  0.68482799  0.97860005  1
  C  C172  1  0.50000000  0.68424178  0.22887793  1
  C  C173  1  0.50000000  0.68445666  0.72896872  1
  C  C174  1  0.50000000  0.68420582  0.35412355  1
  C  C175  1  0.50000000  0.68448006  0.85369794  1
  C  C176  1  0.50000000  0.62431720  0.01904573  1
  C  C177  1  0.50000000  0.62333176  0.52102939  1
  C  C178  1  0.50000000  0.62354701  0.39515666  1
  C  C179  1  0.50000000  0.62302123  0.89509974  1
  C  C180  1  0.50000000  0.62362531  0.14440909  1
  C  C181  1  0.50000000  0.62292572  0.64592187  1
  C  C182  1  0.50000000  0.62342749  0.26972765  1
  C  C183  1  0.50000000  0.62286158  0.77057712  1
  C  C184  1  0.50000000  0.65407458  0.04074109  1
  C  C185  1  0.50000000  0.65411749  0.54204077  1
  C  C186  1  0.50000000  0.65367877  0.41688356  1
  C  C187  1  0.50000000  0.65401351  0.91610148  1
  C  C188  1  0.50000000  0.65365606  0.16622880  1
  C  C189  1  0.50000000  0.65379934  0.66677424  1
  C  C190  1  0.50000000  0.65353271  0.29149254  1
  C  C191  1  0.50000000  0.65377998  0.79143441  1
  C  C192  1  0.50000000  0.71465670  0.08216221  1
  C  C193  1  0.50000000  0.71468985  0.58266913  1
  C  C194  1  0.50000000  0.71477576  0.45738119  1
  C  C195  1  0.50000000  0.71489966  0.95690183  1
  C  C196  1  0.50000000  0.71439548  0.20716559  1
  C  C197  1  0.50000000  0.71448088  0.70745994  1
  C  C198  1  0.50000000  0.71433280  0.33235824  1
  C  C199  1  0.50000000  0.71451366  0.83226735  1
  C  C200  1  0.50000000  0.68493053  0.02038855  1
  C  C201  1  0.50000000  0.68475130  0.52114294  1
  C  C202  1  0.50000000  0.68423513  0.39604614  1
  C  C203  1  0.50000000  0.68456855  0.89552743  1
  C  C204  1  0.50000000  0.68432920  0.14557255  1
  C  C205  1  0.50000000  0.68447748  0.64608946  1
  C  C206  1  0.50000000  0.68420257  0.27081048  1
  C  C207  1  0.50000000  0.68446895  0.77084899  1
  C  C208  1  0.50000000  0.71490775  0.04233857  1
  C  C209  1  0.50000000  0.71481910  0.54285736  1
  C  C210  1  0.50000000  0.71450479  0.41756360  1
  C  C211  1  0.50000000  0.71473521  0.91706952  1
  C  C212  1  0.50000000  0.71444549  0.16734047  1
  C  C213  1  0.50000000  0.71449509  0.66754963  1
  C  C214  1  0.50000000  0.71432607  0.29254697  1
  C  C215  1  0.50000000  0.71450064  0.79236083  1
  H  H216  1  0.50000000  0.26183954  0.09752033  1
  H  H217  1  0.50000000  0.26153750  0.59747585  1
  H  H218  1  0.50000000  0.26162969  0.47225034  1
  H  H219  1  0.50000000  0.26164220  0.97239304  1
  H  H220  1  0.50000000  0.26188689  0.22228443  1
  H  H221  1  0.50000000  0.26154933  0.72243162  1
  H  H222  1  0.50000000  0.26185096  0.34732329  1
  H  H223  1  0.50000000  0.26158389  0.84743586  1
  H  H224  1  0.50000000  0.26169430  0.02740001  1
  H  H225  1  0.50000000  0.26159636  0.52764446  1
  H  H226  1  0.50000000  0.26182069  0.40248796  1
  H  H227  1  0.50000000  0.26159011  0.90224018  1
  H  H228  1  0.50000000  0.26186465  0.15239111  1
  H  H229  1  0.50000000  0.26157376  0.65249024  1
  H  H230  1  0.50000000  0.26189711  0.27752962  1
  H  H231  1  0.50000000  0.26155309  0.77739102  1
  H  H232  1  0.50000000  0.73846928  0.09749051  1
  H  H233  1  0.50000000  0.73861380  0.59770117  1
  H  H234  1  0.50000000  0.73887034  0.47204278  1
  H  H235  1  0.50000000  0.73880426  0.97201108  1
  H  H236  1  0.50000000  0.73835414  0.22217720  1
  H  H237  1  0.50000000  0.73843612  0.72244686  1
  H  H238  1  0.50000000  0.73837135  0.34718413  1
  H  H239  1  0.50000000  0.73843213  0.84734206  1
  H  H240  1  0.50000000  0.73892556  0.02748454  1
  H  H241  1  0.50000000  0.73879633  0.52792542  1
  H  H242  1  0.50000000  0.73838015  0.40240356  1
  H  H243  1  0.50000000  0.73861974  0.90194312  1
  H  H244  1  0.50000000  0.73845177  0.15242918  1
  H  H245  1  0.50000000  0.73845483  0.65258153  1
  H  H246  1  0.50000000  0.73829368  0.27754813  1
  H  H247  1  0.50000000  0.73844063  0.77734380  1
  H  H248  1  0.50000000  0.52316039  0.08984209  1
  H  H249  1  0.50000000  0.52216416  0.46483515  1
  H  H250  1  0.50000000  0.52304369  0.21493935  1
  H  H251  1  0.50000000  0.52303539  0.34017405  1
  H  H252  1  0.50000000  0.56152568  0.00798595  1
  H  H253  1  0.50000000  0.52222308  0.03485675  1
  H  H254  1  0.50000000  0.52310966  0.41021369  1
  H  H255  1  0.50000000  0.52301464  0.15970565  1
  H  H256  1  0.50000000  0.52304814  0.28494971  1
  H  H257  1  0.50000000  0.59966124  0.08969862  1
  H  H258  1  0.50000000  0.60084508  0.46471863  1
  H  H259  1  0.50000000  0.59956815  0.21478715  1
  H  H260  1  0.50000000  0.59958326  0.34018604  1
  H  H261  1  0.50000000  0.56151421  0.49177598  1
  H  H262  1  0.50000000  0.60091496  0.03494489  1
  H  H263  1  0.50000000  0.59952616  0.41006164  1
  H  H264  1  0.50000000  0.59969740  0.15944580  1
  H  H265  1  0.50000000  0.59947373  0.28475243  1
