# generated using pymatgen
data_H25C108
_symmetry_space_group_name_H-M   'P 1'
_cell_length_a   20.00000000
_cell_length_b   40.19450000
_cell_length_c   34.45658296
_cell_angle_alpha   90.00000000
_cell_angle_beta   90.00000000
_cell_angle_gamma   90.00000000
_symmetry_Int_Tables_number   1
_chemical_formula_structural   H25C108
_chemical_formula_sum   'H50 C216'
_cell_volume   27699.30247238
_cell_formula_units_Z   2
loop_
 _symmetry_equiv_pos_site_id
 _symmetry_equiv_pos_as_xyz
  1  'x, y, z'
loop_
 _atom_site_type_symbol
 _atom_site_label
 _atom_site_symmetry_multiplicity
 _atom_site_fract_x
 _atom_site_fract_y
 _atom_site_fract_z
 _atom_site_occupancy
  C  C0  1  0.50000000  0.28562443  0.08244348  1
  C  C1  1  0.50000000  0.28539290  0.58237796  1
  C  C2  1  0.50000000  0.28551312  0.45733281  1
  C  C3  1  0.50000000  0.28541473  0.95745535  1
  C  C4  1  0.50000000  0.28575739  0.20740733  1
  C  C5  1  0.50000000  0.28535621  0.70748748  1
  C  C6  1  0.50000000  0.28569636  0.33225590  1
  C  C7  1  0.50000000  0.28536171  0.83240628  1
  C  C8  1  0.50000000  0.31567748  0.10400012  1
  C  C9  1  0.50000000  0.31538246  0.60403481  1
  C  C10  1  0.50000000  0.31549373  0.47900622  1
  C  C11  1  0.50000000  0.31546865  0.97900592  1
  C  C12  1  0.50000000  0.31579224  0.22897429  1
  C  C13  1  0.50000000  0.31538920  0.72903511  1
  C  C14  1  0.50000000  0.31567327  0.35394591  1
  C  C15  1  0.50000000  0.31538610  0.85398110  1
  C  C16  1  0.50000000  0.28555702  0.04253363  1
  C  C17  1  0.50000000  0.28541934  0.54247014  1
  C  C18  1  0.50000000  0.28557432  0.41743591  1
  C  C19  1  0.50000000  0.28537679  0.91753267  1
  C  C20  1  0.50000000  0.28575425  0.16752532  1
  C  C21  1  0.50000000  0.28535073  0.66756491  1
  C  C22  1  0.50000000  0.28574322  0.29237262  1
  C  C23  1  0.50000000  0.28534191  0.79248572  1
  C  C24  1  0.50000000  0.34631147  0.08323234  1
  C  C25  1  0.50000000  0.34606655  0.58332173  1
  C  C26  1  0.50000000  0.34618734  0.45830419  1
  C  C27  1  0.50000000  0.34611510  0.95824147  1
  C  C28  1  0.50000000  0.34642897  0.20824540  1
  C  C29  1  0.50000000  0.34604471  0.70831074  1
  C  C30  1  0.50000000  0.34637239  0.33327530  1
  C  C31  1  0.50000000  0.34605630  0.83326010  1
  C  C32  1  0.50000000  0.37717081  0.10413405  1
  C  C33  1  0.50000000  0.37688717  0.60428619  1
  C  C34  1  0.50000000  0.37699213  0.47928765  1
  C  C35  1  0.50000000  0.37697843  0.97912813  1
  C  C36  1  0.50000000  0.37725687  0.22919637  1
  C  C37  1  0.50000000  0.37687670  0.72924014  1
  C  C38  1  0.50000000  0.37718239  0.35425552  1
  C  C39  1  0.50000000  0.37689524  0.85416670  1
  C  C40  1  0.50000000  0.31555070  0.02089311  1
  C  C41  1  0.50000000  0.31545082  0.52089152  1
  C  C42  1  0.50000000  0.31559925  0.39583461  1
  C  C43  1  0.50000000  0.31537737  0.89588495  1
  C  C44  1  0.50000000  0.31574865  0.14588478  1
  C  C45  1  0.50000000  0.31536654  0.64594428  1
  C  C46  1  0.50000000  0.31579344  0.27084019  1
  C  C47  1  0.50000000  0.31537943  0.77092120  1
  C  C48  1  0.50000000  0.34624909  0.04156217  1
  C  C49  1  0.50000000  0.34609849  0.54165375  1
  C  C50  1  0.50000000  0.34623974  0.41662088  1
  C  C51  1  0.50000000  0.34605988  0.91657635  1
  C  C52  1  0.50000000  0.34642129  0.16657474  1
  C  C53  1  0.50000000  0.34603952  0.66665613  1
  C  C54  1  0.50000000  0.34641550  0.29159864  1
  C  C55  1  0.50000000  0.34604886  0.79161046  1
  C  C56  1  0.50000000  0.40788893  0.08312604  1
  C  C57  1  0.50000000  0.40762474  0.58339504  1
  C  C58  1  0.50000000  0.40775486  0.45840550  1
  C  C59  1  0.50000000  0.40767307  0.95812531  1
  C  C60  1  0.50000000  0.40799958  0.20823563  1
  C  C61  1  0.50000000  0.40758088  0.70832388  1
  C  C62  1  0.50000000  0.40796500  0.33334297  1
  C  C63  1  0.50000000  0.40760160  0.83320256  1
  C  C64  1  0.50000000  0.43861001  0.10389825  1
  C  C65  1  0.50000000  0.43827273  0.60427428  1
  C  C66  1  0.50000000  0.43837129  0.47932976  1
  C  C67  1  0.50000000  0.43838384  0.97884599  1
  C  C68  1  0.50000000  0.43865489  0.22907852  1
  C  C69  1  0.50000000  0.43823437  0.72914137  1
  C  C70  1  0.50000000  0.43858944  0.35422746  1
  C  C71  1  0.50000000  0.43827348  0.85395762  1
  C  C72  1  0.50000000  0.37704827  0.02057319  1
  C  C73  1  0.50000000  0.37694724  0.52074309  1
  C  C74  1  0.50000000  0.37710715  0.39572462  1
  C  C75  1  0.50000000  0.37687910  0.89559955  1
  C  C76  1  0.50000000  0.37722575  0.14559639  1
  C  C77  1  0.50000000  0.37687852  0.64572062  1
  C  C78  1  0.50000000  0.37725306  0.27066510  1
  C  C79  1  0.50000000  0.37687675  0.77066387  1
  C  C80  1  0.50000000  0.40781136  0.04145486  1
  C  C81  1  0.50000000  0.40764713  0.54174385  1
  C  C82  1  0.50000000  0.40782379  0.41673686  1
  C  C83  1  0.50000000  0.40762864  0.91646760  1
  C  C84  1  0.50000000  0.40799480  0.16652956  1
  C  C85  1  0.50000000  0.40758685  0.66666899  1
  C  C86  1  0.50000000  0.40798813  0.29164099  1
  C  C87  1  0.50000000  0.40759008  0.79154960  1
  C  C88  1  0.50000000  0.46924951  0.08287441  1
  C  C89  1  0.50000000  0.46904368  0.58344281  1
  C  C90  1  0.50000000  0.46912684  0.45850643  1
  C  C91  1  0.50000000  0.46906222  0.95783561  1
  C  C92  1  0.50000000  0.46936513  0.20809445  1
  C  C93  1  0.50000000  0.46898320  0.70828550  1
  C  C94  1  0.50000000  0.46932562  0.33332026  1
  C  C95  1  0.50000000  0.46900538  0.83300474  1
  C  C96  1  0.50000000  0.50018035  0.10371565  1
  C  C97  1  0.50000000  0.49978363  0.60448524  1
  C  C98  1  0.50000000  0.49981166  0.47962557  1
  C  C99  1  0.50000000  0.49992243  0.97865345  1
  C  C100  1  0.50000000  0.50018968  0.22907977  1
  C  C101  1  0.50000000  0.49970765  0.72916268  1
  C  C102  1  0.50000000  0.50014562  0.35438617  1
  C  C103  1  0.50000000  0.49976789  0.85379195  1
  C  C104  1  0.50000000  0.43842917  0.02051882  1
  C  C105  1  0.50000000  0.43834294  0.52100926  1
  C  C106  1  0.50000000  0.43855205  0.39597884  1
  C  C107  1  0.50000000  0.43827590  0.89557844  1
  C  C108  1  0.50000000  0.43863108  0.14564643  1
  C  C109  1  0.50000000  0.43825327  0.64589495  1
  C  C110  1  0.50000000  0.43864889  0.27080941  1
  C  C111  1  0.50000000  0.43823969  0.77071911  1
  C  C112  1  0.50000000  0.46918519  0.04135292  1
  C  C113  1  0.50000000  0.46902955  0.54200888  1
  C  C114  1  0.50000000  0.46919570  0.41698676  1
  C  C115  1  0.50000000  0.46906044  0.91638529  1
  C  C116  1  0.50000000  0.46936089  0.16657065  1
  C  C117  1  0.50000000  0.46898516  0.66684172  1
  C  C118  1  0.50000000  0.46934911  0.29179535  1
  C  C119  1  0.50000000  0.46899696  0.79156079  1
  C  C120  1  0.50000000  0.53078189  0.08285245  1
  C  C121  1  0.50000000  0.53048112  0.58384642  1
  C  C122  1  0.50000000  0.53068735  0.45917775  1
  C  C123  1  0.50000000  0.53053125  0.95757160  1
  C  C124  1  0.50000000  0.53081807  0.20827815  1
  C  C125  1  0.50000000  0.53038553  0.70839487  1
  C  C126  1  0.50000000  0.53080792  0.33362186  1
  C  C127  1  0.50000000  0.53041852  0.83292591  1
  C  C128  1  0.50000000  0.56069684  0.10455475  1
  C  C129  1  0.50000000  0.56120710  0.60485299  1
  C  C130  1  0.50000000  0.56033146  0.48073399  1
  C  C131  1  0.50000000  0.56125267  0.97847251  1
  C  C132  1  0.50000000  0.56076323  0.23000440  1
  C  C133  1  0.50000000  0.56111227  0.72922669  1
  C  C134  1  0.50000000  0.56075003  0.35537453  1
  C  C135  1  0.50000000  0.56120720  0.85364267  1
  C  C136  1  0.50000000  0.49988072  0.02022599  1
  C  C137  1  0.50000000  0.49987727  0.52118307  1
  C  C138  1  0.50000000  0.50011768  0.39613991  1
  C  C139  1  0.50000000  0.49980135  0.89534121  1
  C  C140  1  0.50000000  0.50017674  0.14549890  1
  C  C141  1  0.50000000  0.49974293  0.64603763  1
  C  C142  1  0.50000000  0.50017587  0.27082417  1
  C  C143  1  0.50000000  0.49971261  0.77067702  1
  C  C144  1  0.50000000  0.53076813  0.04067071  1
  C  C145  1  0.50000000  0.53049978  0.54224807  1
  C  C146  1  0.50000000  0.53070698  0.41700024  1
  C  C147  1  0.50000000  0.53050982  0.91596763  1
  C  C148  1  0.50000000  0.53083242  0.16628171  1
  C  C149  1  0.50000000  0.53039568  0.66690334  1
  C  C150  1  0.50000000  0.53079837  0.29164110  1
  C  C151  1  0.50000000  0.53039284  0.79143359  1
  C  C152  1  0.50000000  0.59209066  0.58426679  1
  C  C153  1  0.50000000  0.59250675  0.95693933  1
  C  C154  1  0.50000000  0.59188489  0.70847683  1
  C  C155  1  0.50000000  0.59196778  0.83273257  1
  C  C156  1  0.50000000  0.62285736  0.60503250  1
  C  C157  1  0.50000000  0.62329732  0.97596282  1
  C  C158  1  0.50000000  0.62259764  0.72925368  1
  C  C159  1  0.50000000  0.62275350  0.85331451  1
  C  C160  1  0.50000000  0.56040552  0.01906329  1
  C  C161  1  0.50000000  0.56124650  0.52132363  1
  C  C162  1  0.50000000  0.56065507  0.39537304  1
  C  C163  1  0.50000000  0.56124109  0.89496499  1
  C  C164  1  0.50000000  0.56078014  0.14454701  1
  C  C165  1  0.50000000  0.56118190  0.64618303  1
  C  C166  1  0.50000000  0.56076245  0.26996177  1
  C  C167  1  0.50000000  0.56111506  0.77059855  1
  C  C168  1  0.50000000  0.59246519  0.54285798  1
  C  C169  1  0.50000000  0.59214326  0.91554326  1
  C  C170  1  0.50000000  0.59194972  0.66708606  1
  C  C171  1  0.50000000  0.59188922  0.79134326  1
  C  C172  1  0.50000000  0.65383303  0.58463665  1
  C  C173  1  0.50000000  0.65385953  0.95668262  1
  C  C174  1  0.50000000  0.65344833  0.70858876  1
  C  C175  1  0.50000000  0.65348187  0.83259380  1
  C  C176  1  0.50000000  0.68540930  0.10390922  1
  C  C177  1  0.50000000  0.68451135  0.60536137  1
  C  C178  1  0.50000000  0.68656958  0.48186073  1
  C  C179  1  0.50000000  0.68545743  0.97761408  1
  C  C180  1  0.50000000  0.68469992  0.22998928  1
  C  C181  1  0.50000000  0.68420118  0.72924770  1
  C  C182  1  0.50000000  0.68509050  0.35598110  1
  C  C183  1  0.50000000  0.68436601  0.85320089  1
  C  C184  1  0.50000000  0.62320875  0.52383910  1
  C  C185  1  0.50000000  0.62290895  0.89477329  1
  C  C186  1  0.50000000  0.62272839  0.64650065  1
  C  C187  1  0.50000000  0.62260317  0.77056835  1
  C  C188  1  0.50000000  0.65380580  0.54311169  1
  C  C189  1  0.50000000  0.65388418  0.91516085  1
  C  C190  1  0.50000000  0.65347449  0.66720372  1
  C  C191  1  0.50000000  0.65345513  0.79122754  1
  C  C192  1  0.50000000  0.71474118  0.08100627  1
  C  C193  1  0.50000000  0.71498559  0.58395892  1
  C  C194  1  0.50000000  0.71535611  0.45867528  1
  C  C195  1  0.50000000  0.71540750  0.95531210  1
  C  C196  1  0.50000000  0.71406219  0.20685604  1
  C  C197  1  0.50000000  0.71443862  0.70784753  1
  C  C198  1  0.50000000  0.71417584  0.33246591  1
  C  C199  1  0.50000000  0.71453393  0.83163269  1
  C  C200  1  0.50000000  0.68665215  0.01791357  1
  C  C201  1  0.50000000  0.68539305  0.52216323  1
  C  C202  1  0.50000000  0.68527147  0.39579401  1
  C  C203  1  0.50000000  0.68453511  0.89439956  1
  C  C204  1  0.50000000  0.68519810  0.14371814  1
  C  C205  1  0.50000000  0.68435666  0.64658457  1
  C  C206  1  0.50000000  0.68465990  0.26967184  1
  C  C207  1  0.50000000  0.68421335  0.77058005  1
  C  C208  1  0.50000000  0.71548440  0.04096603  1
  C  C209  1  0.50000000  0.71537018  0.54439825  1
  C  C210  1  0.50000000  0.71458772  0.41864543  1
  C  C211  1  0.50000000  0.71499606  0.91577678  1
  C  C212  1  0.50000000  0.71427036  0.16715004  1
  C  C213  1  0.50000000  0.71450890  0.66818274  1
  C  C214  1  0.50000000  0.71399526  0.29276340  1
  C  C215  1  0.50000000  0.71447117  0.79197305  1
  H  H216  1  0.50000000  0.26171092  0.09751703  1
  H  H217  1  0.50000000  0.26137429  0.59722112  1
  H  H218  1  0.50000000  0.26144421  0.47205963  1
  H  H219  1  0.50000000  0.26146669  0.97247502  1
  H  H220  1  0.50000000  0.26181542  0.22239855  1
  H  H221  1  0.50000000  0.26141260  0.72251171  1
  H  H222  1  0.50000000  0.26171032  0.34712431  1
  H  H223  1  0.50000000  0.26144469  0.84747666  1
  H  H224  1  0.50000000  0.26161764  0.02749749  1
  H  H225  1  0.50000000  0.26143631  0.52754970  1
  H  H226  1  0.50000000  0.26156525  0.40260180  1
  H  H227  1  0.50000000  0.26140977  0.90256643  1
  H  H228  1  0.50000000  0.26181057  0.15254511  1
  H  H229  1  0.50000000  0.26138671  0.65260475  1
  H  H230  1  0.50000000  0.26179294  0.27739904  1
  H  H231  1  0.50000000  0.26138653  0.77747579  1
  H  H232  1  0.50000000  0.73872943  0.09602350  1
  H  H233  1  0.50000000  0.73871894  0.59937847  1
  H  H234  1  0.50000000  0.73991761  0.47239356  1
  H  H235  1  0.50000000  0.73942629  0.97013179  1
  H  H236  1  0.50000000  0.73827530  0.22141936  1
  H  H237  1  0.50000000  0.73835164  0.72287228  1
  H  H238  1  0.50000000  0.73853286  0.34668477  1
  H  H239  1  0.50000000  0.73841151  0.84674396  1
  H  H240  1  0.50000000  0.73997032  0.02704806  1
  H  H241  1  0.50000000  0.73925453  0.52923385  1
  H  H242  1  0.50000000  0.73852489  0.40351184  1
  H  H243  1  0.50000000  0.73879230  0.90053815  1
  H  H244  1  0.50000000  0.73853511  0.15269730  1
  H  H245  1  0.50000000  0.73847220  0.65329402  1
  H  H246  1  0.50000000  0.73812038  0.27798245  1
  H  H247  1  0.50000000  0.73833385  0.77679525  1
  H  H248  1  0.50000000  0.58469499  0.08963976  1
  H  H249  1  0.50000000  0.58381628  0.46491049  1
  H  H250  1  0.50000000  0.58477842  0.21514798  1
  H  H251  1  0.50000000  0.58481339  0.34059878  1
  H  H252  1  0.50000000  0.62347621  0.00758104  1
  H  H253  1  0.50000000  0.58395255  0.03473925  1
  H  H254  1  0.50000000  0.58463294  0.41036464  1
  H  H255  1  0.50000000  0.58484222  0.15933963  1
  H  H256  1  0.50000000  0.58477746  0.28483289  1
  H  H257  1  0.50000000  0.66112032  0.08943873  1
  H  H258  1  0.50000000  0.66287767  0.46636772  1
  H  H259  1  0.50000000  0.66047859  0.21543887  1
  H  H260  1  0.50000000  0.66076337  0.34167330  1
  H  H261  1  0.50000000  0.62339576  0.49221645  1
  H  H262  1  0.50000000  0.66305024  0.03359501  1
  H  H263  1  0.50000000  0.66102873  0.41039411  1
  H  H264  1  0.50000000  0.66095693  0.15823550  1
  H  H265  1  0.50000000  0.66049508  0.28436096  1
