# generated using pymatgen
data_H17C108
_symmetry_space_group_name_H-M   'P 1'
_cell_length_a   20.00000000
_cell_length_b   40.19450000
_cell_length_c   34.45501870
_cell_angle_alpha   90.00000000
_cell_angle_beta   90.00000000
_cell_angle_gamma   90.00000000
_symmetry_Int_Tables_number   1
_chemical_formula_structural   H17C108
_chemical_formula_sum   'H34 C216'
_cell_volume   27698.04498464
_cell_formula_units_Z   2
loop_
 _symmetry_equiv_pos_site_id
 _symmetry_equiv_pos_as_xyz
  1  'x, y, z'
loop_
 _atom_site_type_symbol
 _atom_site_label
 _atom_site_symmetry_multiplicity
 _atom_site_fract_x
 _atom_site_fract_y
 _atom_site_fract_z
 _atom_site_occupancy
  C  C0  1  0.50000000  0.28566201  0.58214632  1
  C  C1  1  0.50000000  0.28573449  0.95755874  1
  C  C2  1  0.50000000  0.28588186  0.70742509  1
  C  C3  1  0.50000000  0.28585530  0.83245656  1
  C  C4  1  0.50000000  0.31593118  0.10460247  1
  C  C5  1  0.50000000  0.31581274  0.60399538  1
  C  C6  1  0.50000000  0.31655297  0.48041045  1
  C  C7  1  0.50000000  0.31616574  0.97870884  1
  C  C8  1  0.50000000  0.31567016  0.23000834  1
  C  C9  1  0.50000000  0.31589098  0.72901621  1
  C  C10  1  0.50000000  0.31583647  0.35529184  1
  C  C11  1  0.50000000  0.31586014  0.85407431  1
  C  C12  1  0.50000000  0.28577578  0.54229505  1
  C  C13  1  0.50000000  0.28566199  0.91771116  1
  C  C14  1  0.50000000  0.28585291  0.66750873  1
  C  C15  1  0.50000000  0.28586731  0.79253944  1
  C  C16  1  0.50000000  0.34582112  0.08312604  1
  C  C17  1  0.50000000  0.34665114  0.58365128  1
  C  C18  1  0.50000000  0.34601400  0.45905995  1
  C  C19  1  0.50000000  0.34686447  0.95779878  1
  C  C20  1  0.50000000  0.34555919  0.20840895  1
  C  C21  1  0.50000000  0.34654712  0.70830780  1
  C  C22  1  0.50000000  0.34566208  0.33368208  1
  C  C23  1  0.50000000  0.34657376  0.83329514  1
  C  C24  1  0.50000000  0.37641718  0.10381659  1
  C  C25  1  0.50000000  0.37752823  0.60447218  1
  C  C26  1  0.50000000  0.37710291  0.47960268  1
  C  C27  1  0.50000000  0.37738468  0.97885026  1
  C  C28  1  0.50000000  0.37617823  0.22912876  1
  C  C29  1  0.50000000  0.37741573  0.72922683  1
  C  C30  1  0.50000000  0.37632591  0.35442659  1
  C  C31  1  0.50000000  0.37748000  0.85406906  1
  C  C32  1  0.50000000  0.31649988  0.01951449  1
  C  C33  1  0.50000000  0.31622470  0.52120437  1
  C  C34  1  0.50000000  0.31598314  0.39537155  1
  C  C35  1  0.50000000  0.31582438  0.89591322  1
  C  C36  1  0.50000000  0.31581684  0.14469425  1
  C  C37  1  0.50000000  0.31584197  0.64584853  1
  C  C38  1  0.50000000  0.31569903  0.27005580  1
  C  C39  1  0.50000000  0.31588074  0.77093452  1
  C  C40  1  0.50000000  0.34596120  0.04086319  1
  C  C41  1  0.50000000  0.34690861  0.54212921  1
  C  C42  1  0.50000000  0.34588818  0.41681898  1
  C  C43  1  0.50000000  0.34664095  0.91627238  1
  C  C44  1  0.50000000  0.34563644  0.16630009  1
  C  C45  1  0.50000000  0.34656282  0.66663049  1
  C  C46  1  0.50000000  0.34560560  0.29161488  1
  C  C47  1  0.50000000  0.34654309  0.79162572  1
  C  C48  1  0.50000000  0.40739815  0.08295243  1
  C  C49  1  0.50000000  0.40823696  0.58351975  1
  C  C50  1  0.50000000  0.40772560  0.45858125  1
  C  C51  1  0.50000000  0.40826285  0.95803075  1
  C  C52  1  0.50000000  0.40697539  0.20813183  1
  C  C53  1  0.50000000  0.40815713  0.70839926  1
  C  C54  1  0.50000000  0.40709465  0.33341802  1
  C  C55  1  0.50000000  0.40822926  0.83323811  1
  C  C56  1  0.50000000  0.43782393  0.10378388  1
  C  C57  1  0.50000000  0.43897946  0.60419992  1
  C  C58  1  0.50000000  0.43849288  0.47934366  1
  C  C59  1  0.50000000  0.43879010  0.97886902  1
  C  C60  1  0.50000000  0.43750662  0.22902563  1
  C  C61  1  0.50000000  0.43883201  0.72914577  1
  C  C62  1  0.50000000  0.43770632  0.35427838  1
  C  C63  1  0.50000000  0.43889120  0.85408680  1
  C  C64  1  0.50000000  0.37706606  0.02032222  1
  C  C65  1  0.50000000  0.37742558  0.52108355  1
  C  C66  1  0.50000000  0.37646664  0.39613670  1
  C  C67  1  0.50000000  0.37752047  0.89545459  1
  C  C68  1  0.50000000  0.37630653  0.14550328  1
  C  C69  1  0.50000000  0.37747403  0.64586042  1
  C  C70  1  0.50000000  0.37619206  0.27083993  1
  C  C71  1  0.50000000  0.37741219  0.77069822  1
  C  C72  1  0.50000000  0.40770731  0.04130858  1
  C  C73  1  0.50000000  0.40829350  0.54189682  1
  C  C74  1  0.50000000  0.40744209  0.41694618  1
  C  C75  1  0.50000000  0.40822780  0.91640247  1
  C  C76  1  0.50000000  0.40707650  0.16651191  1
  C  C77  1  0.50000000  0.40822446  0.66668238  1
  C  C78  1  0.50000000  0.40699753  0.29179975  1
  C  C79  1  0.50000000  0.40815484  0.79152225  1
  C  C80  1  0.50000000  0.46863894  0.08299499  1
  C  C81  1  0.50000000  0.46972794  0.58324725  1
  C  C82  1  0.50000000  0.46908855  0.45844667  1
  C  C83  1  0.50000000  0.46970846  0.95817588  1
  C  C84  1  0.50000000  0.46809222  0.20813993  1
  C  C85  1  0.50000000  0.46959266  0.70820036  1
  C  C86  1  0.50000000  0.46821846  0.33335416  1
  C  C87  1  0.50000000  0.46971048  0.83331127  1
  C  C88  1  0.50000000  0.49922326  0.10399872  1
  C  C89  1  0.50000000  0.50059092  0.60396402  1
  C  C90  1  0.50000000  0.50004238  0.47917697  1
  C  C91  1  0.50000000  0.50046429  0.97910697  1
  C  C92  1  0.50000000  0.49875967  0.22913861  1
  C  C93  1  0.50000000  0.50026135  0.72907951  1
  C  C94  1  0.50000000  0.49898635  0.35423865  1
  C  C95  1  0.50000000  0.50042855  0.85423705  1
  C  C96  1  0.50000000  0.43847934  0.02055097  1
  C  C97  1  0.50000000  0.43880650  0.52102981  1
  C  C98  1  0.50000000  0.43786590  0.39611745  1
  C  C99  1  0.50000000  0.43897474  0.89571277  1
  C  C100  1  0.50000000  0.43768499  0.14563070  1
  C  C101  1  0.50000000  0.43888608  0.64582876  1
  C  C102  1  0.50000000  0.43751152  0.27088620  1
  C  C103  1  0.50000000  0.43883453  0.77078760  1
  C  C104  1  0.50000000  0.46906420  0.04146414  1
  C  C105  1  0.50000000  0.46972262  0.54172486  1
  C  C106  1  0.50000000  0.46866766  0.41690352  1
  C  C107  1  0.50000000  0.46973041  0.91665471  1
  C  C108  1  0.50000000  0.46821110  0.16652701  1
  C  C109  1  0.50000000  0.46969569  0.66661969  1
  C  C110  1  0.50000000  0.46810011  0.29174784  1
  C  C111  1  0.50000000  0.46960014  0.79173461  1
  C  C112  1  0.50000000  0.52994477  0.08329383  1
  C  C113  1  0.50000000  0.53127025  0.58309669  1
  C  C114  1  0.50000000  0.53050635  0.45828458  1
  C  C115  1  0.50000000  0.53142465  0.95849466  1
  C  C116  1  0.50000000  0.52929013  0.20832668  1
  C  C117  1  0.50000000  0.53084300  0.70815058  1
  C  C118  1  0.50000000  0.52941167  0.33330933  1
  C  C119  1  0.50000000  0.53104318  0.83347253  1
  C  C120  1  0.50000000  0.56032652  0.10439753  1
  C  C121  1  0.50000000  0.56221508  0.60377725  1
  C  C122  1  0.50000000  0.56149504  0.47899424  1
  C  C123  1  0.50000000  0.56231173  0.97938503  1
  C  C124  1  0.50000000  0.55977561  0.22928452  1
  C  C125  1  0.50000000  0.56149542  0.72915460  1
  C  C126  1  0.50000000  0.56009225  0.35396166  1
  C  C127  1  0.50000000  0.56182699  0.85444044  1
  C  C128  1  0.50000000  0.50001945  0.02072176  1
  C  C129  1  0.50000000  0.50048133  0.52079327  1
  C  C130  1  0.50000000  0.49924311  0.39587471  1
  C  C131  1  0.50000000  0.50060213  0.89595301  1
  C  C132  1  0.50000000  0.49897239  0.14562767  1
  C  C133  1  0.50000000  0.50041671  0.64569074  1
  C  C134  1  0.50000000  0.49876480  0.27074733  1
  C  C135  1  0.50000000  0.50027189  0.77087801  1
  C  C136  1  0.50000000  0.53048666  0.04158648  1
  C  C137  1  0.50000000  0.53143582  0.54141438  1
  C  C138  1  0.50000000  0.52996780  0.41656819  1
  C  C139  1  0.50000000  0.53129052  0.91682418  1
  C  C140  1  0.50000000  0.52939473  0.16655865  1
  C  C141  1  0.50000000  0.53103517  0.66645323  1
  C  C142  1  0.50000000  0.52930000  0.29154686  1
  C  C143  1  0.50000000  0.53087019  0.79179773  1
  C  C144  1  0.50000000  0.59122920  0.08379091  1
  C  C145  1  0.50000000  0.59312202  0.58305437  1
  C  C146  1  0.50000000  0.59207289  0.45787743  1
  C  C147  1  0.50000000  0.59379428  0.95886984  1
  C  C148  1  0.50000000  0.59059343  0.20866078  1
  C  C149  1  0.50000000  0.59206071  0.70831170  1
  C  C150  1  0.50000000  0.59059975  0.33255741  1
  C  C151  1  0.50000000  0.59232967  0.83337746  1
  C  C152  1  0.50000000  0.62108168  0.10568548  1
  C  C153  1  0.50000000  0.62355757  0.60431724  1
  C  C154  1  0.50000000  0.62327200  0.47813264  1
  C  C155  1  0.50000000  0.62470977  0.97960026  1
  C  C156  1  0.50000000  0.62123377  0.22908820  1
  C  C157  1  0.50000000  0.62247787  0.72926002  1
  C  C158  1  0.50000000  0.62120703  0.35267018  1
  C  C159  1  0.50000000  0.62298268  0.85399371  1
  C  C160  1  0.50000000  0.56147670  0.02086854  1
  C  C161  1  0.50000000  0.56232206  0.52047572  1
  C  C162  1  0.50000000  0.56035089  0.39545395  1
  C  C163  1  0.50000000  0.56221851  0.89609312  1
  C  C164  1  0.50000000  0.56006835  0.14587983  1
  C  C165  1  0.50000000  0.56182635  0.64541748  1
  C  C166  1  0.50000000  0.55977917  0.27056971  1
  C  C167  1  0.50000000  0.56150802  0.77076608  1
  C  C168  1  0.50000000  0.59204860  0.04197236  1
  C  C169  1  0.50000000  0.59379850  0.54099442  1
  C  C170  1  0.50000000  0.59125125  0.41605702  1
  C  C171  1  0.50000000  0.59313063  0.91681601  1
  C  C172  1  0.50000000  0.59058098  0.16727363  1
  C  C173  1  0.50000000  0.59230898  0.66650505  1
  C  C174  1  0.50000000  0.59060220  0.29116863  1
  C  C175  1  0.50000000  0.59208167  0.79157154  1
  C  C176  1  0.50000000  0.65114461  0.08540989  1
  C  C177  1  0.50000000  0.65483670  0.58409798  1
  C  C178  1  0.50000000  0.65175473  0.45388261  1
  C  C179  1  0.50000000  0.65613219  0.95749495  1
  C  C180  1  0.50000000  0.65138999  0.20803638  1
  C  C181  1  0.50000000  0.65326976  0.70862092  1
  C  C182  1  0.50000000  0.65136402  0.33154520  1
  C  C183  1  0.50000000  0.65353032  0.83255626  1
  C  C184  1  0.50000000  0.68517314  0.60595193  1
  C  C185  1  0.50000000  0.68872095  0.97329730  1
  C  C186  1  0.50000000  0.68378428  0.72915509  1
  C  C187  1  0.50000000  0.68435483  0.85219507  1
  C  C188  1  0.50000000  0.62323803  0.02170780  1
  C  C189  1  0.50000000  0.62470906  0.52024789  1
  C  C190  1  0.50000000  0.62109671  0.39415048  1
  C  C191  1  0.50000000  0.62357910  0.89555732  1
  C  C192  1  0.50000000  0.62118956  0.14716762  1
  C  C193  1  0.50000000  0.62295513  0.64588757  1
  C  C194  1  0.50000000  0.62123245  0.27071192  1
  C  C195  1  0.50000000  0.62248494  0.77060700  1
  C  C196  1  0.50000000  0.65172331  0.04591257  1
  C  C197  1  0.50000000  0.65611180  0.54236412  1
  C  C198  1  0.50000000  0.65117879  0.41438460  1
  C  C199  1  0.50000000  0.65487724  0.91575022  1
  C  C200  1  0.50000000  0.65136536  0.16825743  1
  C  C201  1  0.50000000  0.65349829  0.66728770  1
  C  C202  1  0.50000000  0.65137382  0.29177933  1
  C  C203  1  0.50000000  0.65328480  0.79121365  1
  C  C204  1  0.50000000  0.71631085  0.58774801  1
  C  C205  1  0.50000000  0.71786569  0.95188489  1
  C  C206  1  0.50000000  0.71402029  0.70864057  1
  C  C207  1  0.50000000  0.71423088  0.83079134  1
  C  C208  1  0.50000000  0.68870003  0.52655723  1
  C  C209  1  0.50000000  0.68521674  0.89386598  1
  C  C210  1  0.50000000  0.68430158  0.64761646  1
  C  C211  1  0.50000000  0.68378042  0.77063145  1
  C  C212  1  0.50000000  0.71786115  0.54793748  1
  C  C213  1  0.50000000  0.71634634  0.91208549  1
  C  C214  1  0.50000000  0.71418643  0.66895694  1
  C  C215  1  0.50000000  0.71402852  0.79110193  1
  H  H216  1  0.50000000  0.26169711  0.59713942  1
  H  H217  1  0.50000000  0.26216195  0.97360207  1
  H  H218  1  0.50000000  0.26190653  0.72237233  1
  H  H219  1  0.50000000  0.26190897  0.84748075  1
  H  H220  1  0.50000000  0.26228426  0.52607280  1
  H  H221  1  0.50000000  0.26170857  0.90268848  1
  H  H222  1  0.50000000  0.26186321  0.65259419  1
  H  H223  1  0.50000000  0.26187827  0.77762631  1
  H  H224  1  0.50000000  0.73926637  0.60446299  1
  H  H225  1  0.50000000  0.74181344  0.96705024  1
  H  H226  1  0.50000000  0.73786131  0.72375098  1
  H  H227  1  0.50000000  0.73834311  0.84519977  1
  H  H228  1  0.50000000  0.74177631  0.53267371  1
  H  H229  1  0.50000000  0.73936792  0.89549137  1
  H  H230  1  0.50000000  0.73825328  0.65444883  1
  H  H231  1  0.50000000  0.73782707  0.77587919  1
  H  H232  1  0.50000000  0.29191822  0.08973704  1
  H  H233  1  0.50000000  0.29245068  0.46569936  1
  H  H234  1  0.50000000  0.29165185  0.21515312  1
  H  H235  1  0.50000000  0.29181767  0.34043326  1
  H  H236  1  0.50000000  0.29240133  0.03423029  1
  H  H237  1  0.50000000  0.29201996  0.41035736  1
  H  H238  1  0.50000000  0.29177629  0.15951554  1
  H  H239  1  0.50000000  0.29169372  0.28494163  1
  H  H240  1  0.50000000  0.67506500  0.10036588  1
  H  H241  1  0.50000000  0.67652154  0.46480311  1
  H  H242  1  0.50000000  0.67524240  0.22320792  1
  H  H243  1  0.50000000  0.67529541  0.34647313  1
  H  H244  1  0.50000000  0.69425319  0.00363170  1
  H  H245  1  0.50000000  0.67645610  0.03489146  1
  H  H246  1  0.50000000  0.67509078  0.39938482  1
  H  H247  1  0.50000000  0.67521720  0.15314793  1
  H  H248  1  0.50000000  0.67527290  0.27673027  1
  H  H249  1  0.50000000  0.69420173  0.49622430  1
