# generated using pymatgen
data_H25C108
_symmetry_space_group_name_H-M   'P 1'
_cell_length_a   20.00000000
_cell_length_b   40.19450000
_cell_length_c   34.45650685
_cell_angle_alpha   90.00000000
_cell_angle_beta   90.00000000
_cell_angle_gamma   90.00000000
_symmetry_Int_Tables_number   1
_chemical_formula_structural   H25C108
_chemical_formula_sum   'H50 C216'
_cell_volume   27699.24129481
_cell_formula_units_Z   2
loop_
 _symmetry_equiv_pos_site_id
 _symmetry_equiv_pos_as_xyz
  1  'x, y, z'
loop_
 _atom_site_type_symbol
 _atom_site_label
 _atom_site_symmetry_multiplicity
 _atom_site_fract_x
 _atom_site_fract_y
 _atom_site_fract_z
 _atom_site_occupancy
  C  C0  1  0.50000000  0.28561606  0.08233394  1
  C  C1  1  0.50000000  0.28546929  0.58260652  1
  C  C2  1  0.50000000  0.28554087  0.45747199  1
  C  C3  1  0.50000000  0.28544558  0.95719983  1
  C  C4  1  0.50000000  0.28573303  0.20736886  1
  C  C5  1  0.50000000  0.28551720  0.70744502  1
  C  C6  1  0.50000000  0.28577943  0.33250698  1
  C  C7  1  0.50000000  0.28555376  0.83239425  1
  C  C8  1  0.50000000  0.31563816  0.10370654  1
  C  C9  1  0.50000000  0.31543200  0.60410181  1
  C  C10  1  0.50000000  0.31545637  0.47907316  1
  C  C11  1  0.50000000  0.31542462  0.97866257  1
  C  C12  1  0.50000000  0.31565593  0.22884367  1
  C  C13  1  0.50000000  0.31547470  0.72892722  1
  C  C14  1  0.50000000  0.31569057  0.35397610  1
  C  C15  1  0.50000000  0.31552046  0.85377349  1
  C  C16  1  0.50000000  0.28547419  0.04230787  1
  C  C17  1  0.50000000  0.28546151  0.54262321  1
  C  C18  1  0.50000000  0.28570511  0.41746921  1
  C  C19  1  0.50000000  0.28545778  0.91720389  1
  C  C20  1  0.50000000  0.28570575  0.16731099  1
  C  C21  1  0.50000000  0.28554502  0.66745195  1
  C  C22  1  0.50000000  0.28578042  0.29245615  1
  C  C23  1  0.50000000  0.28552521  0.79239840  1
  C  C24  1  0.50000000  0.34616948  0.08299868  1
  C  C25  1  0.50000000  0.34607782  0.58346588  1
  C  C26  1  0.50000000  0.34613032  0.45846004  1
  C  C27  1  0.50000000  0.34603468  0.95793912  1
  C  C28  1  0.50000000  0.34625085  0.20813820  1
  C  C29  1  0.50000000  0.34615950  0.70830552  1
  C  C30  1  0.50000000  0.34628812  0.33328991  1
  C  C31  1  0.50000000  0.34617619  0.83310996  1
  C  C32  1  0.50000000  0.37719526  0.10386256  1
  C  C33  1  0.50000000  0.37698589  0.60443009  1
  C  C34  1  0.50000000  0.37690105  0.47957424  1
  C  C35  1  0.50000000  0.37696941  0.97877205  1
  C  C36  1  0.50000000  0.37719489  0.22907512  1
  C  C37  1  0.50000000  0.37704039  0.72919016  1
  C  C38  1  0.50000000  0.37724235  0.35426788  1
  C  C39  1  0.50000000  0.37705971  0.85393436  1
  C  C40  1  0.50000000  0.31540471  0.02072168  1
  C  C41  1  0.50000000  0.31543354  0.52112963  1
  C  C42  1  0.50000000  0.31571672  0.39609142  1
  C  C43  1  0.50000000  0.31544759  0.89573360  1
  C  C44  1  0.50000000  0.31562063  0.14583258  1
  C  C45  1  0.50000000  0.31550305  0.64605674  1
  C  C46  1  0.50000000  0.31567999  0.27097411  1
  C  C47  1  0.50000000  0.31548110  0.77090786  1
  C  C48  1  0.50000000  0.34607629  0.04133686  1
  C  C49  1  0.50000000  0.34603211  0.54187835  1
  C  C50  1  0.50000000  0.34625181  0.41680605  1
  C  C51  1  0.50000000  0.34609882  0.91635522  1
  C  C52  1  0.50000000  0.34623895  0.16649301  1
  C  C53  1  0.50000000  0.34616053  0.66671581  1
  C  C54  1  0.50000000  0.34628097  0.29166309  1
  C  C55  1  0.50000000  0.34617211  0.79151601  1
  C  C56  1  0.50000000  0.40779894  0.08308685  1
  C  C57  1  0.50000000  0.40762545  0.58380496  1
  C  C58  1  0.50000000  0.40775239  0.45911928  1
  C  C59  1  0.50000000  0.40754893  0.95775141  1
  C  C60  1  0.50000000  0.40778387  0.20837316  1
  C  C61  1  0.50000000  0.40770805  0.70843823  1
  C  C62  1  0.50000000  0.40783303  0.33354716  1
  C  C63  1  0.50000000  0.40768666  0.83306726  1
  C  C64  1  0.50000000  0.43765409  0.10462738  1
  C  C65  1  0.50000000  0.43830976  0.60466548  1
  C  C66  1  0.50000000  0.43728261  0.48058230  1
  C  C67  1  0.50000000  0.43813593  0.97857477  1
  C  C68  1  0.50000000  0.43768834  0.22985348  1
  C  C69  1  0.50000000  0.43841131  0.72916695  1
  C  C70  1  0.50000000  0.43770414  0.35506789  1
  C  C71  1  0.50000000  0.43839269  0.85372958  1
  C  C72  1  0.50000000  0.37685766  0.02023929  1
  C  C73  1  0.50000000  0.37697665  0.52105091  1
  C  C74  1  0.50000000  0.37729328  0.39597408  1
  C  C75  1  0.50000000  0.37700972  0.89539094  1
  C  C76  1  0.50000000  0.37716637  0.14552411  1
  C  C77  1  0.50000000  0.37704458  0.64588923  1
  C  C78  1  0.50000000  0.37721622  0.27072173  1
  C  C79  1  0.50000000  0.37704690  0.77062147  1
  C  C80  1  0.50000000  0.40771069  0.04070252  1
  C  C81  1  0.50000000  0.40754989  0.54206605  1
  C  C82  1  0.50000000  0.40787405  0.41673586  1
  C  C83  1  0.50000000  0.40764308  0.91601720  1
  C  C84  1  0.50000000  0.40775930  0.16622872  1
  C  C85  1  0.50000000  0.40768236  0.66674011  1
  C  C86  1  0.50000000  0.40781790  0.29140664  1
  C  C87  1  0.50000000  0.40771401  0.79136926  1
  C  C88  1  0.50000000  0.46921740  0.58401710  1
  C  C89  1  0.50000000  0.46941741  0.95720080  1
  C  C90  1  0.50000000  0.46926942  0.70837966  1
  C  C91  1  0.50000000  0.46927157  0.83288601  1
  C  C92  1  0.50000000  0.49999980  0.60463344  1
  C  C93  1  0.50000000  0.49999627  0.97641480  1
  C  C94  1  0.50000000  0.50000355  0.72910576  1
  C  C95  1  0.50000000  0.49999909  0.85353696  1
  C  C96  1  0.50000000  0.43723646  0.01923917  1
  C  C97  1  0.50000000  0.43815291  0.52125794  1
  C  C98  1  0.50000000  0.43773322  0.39517539  1
  C  C99  1  0.50000000  0.43831972  0.89514367  1
  C  C100  1  0.50000000  0.43761661  0.14472496  1
  C  C101  1  0.50000000  0.43839231  0.64608088  1
  C  C102  1  0.50000000  0.43770812  0.26991246  1
  C  C103  1  0.50000000  0.43841594  0.77064678  1
  C  C104  1  0.50000000  0.46942865  0.54261701  1
  C  C105  1  0.50000000  0.46921635  0.91579851  1
  C  C106  1  0.50000000  0.46927247  0.66693027  1
  C  C107  1  0.50000000  0.46926949  0.79144185  1
  C  C108  1  0.50000000  0.53078413  0.58402037  1
  C  C109  1  0.50000000  0.53058116  0.95719797  1
  C  C110  1  0.50000000  0.53073664  0.70837685  1
  C  C111  1  0.50000000  0.53072964  0.83288853  1
  C  C112  1  0.50000000  0.56234230  0.10462592  1
  C  C113  1  0.50000000  0.56169442  0.60466504  1
  C  C114  1  0.50000000  0.56271820  0.48058134  1
  C  C115  1  0.50000000  0.56186144  0.97857764  1
  C  C116  1  0.50000000  0.56230706  0.22985142  1
  C  C117  1  0.50000000  0.56159559  0.72916275  1
  C  C118  1  0.50000000  0.56230758  0.35506289  1
  C  C119  1  0.50000000  0.56160589  0.85373496  1
  C  C120  1  0.50000000  0.49999954  0.52337630  1
  C  C121  1  0.50000000  0.49999823  0.89517777  1
  C  C122  1  0.50000000  0.50000074  0.64627707  1
  C  C123  1  0.50000000  0.50000339  0.77072815  1
  C  C124  1  0.50000000  0.53057619  0.54262102  1
  C  C125  1  0.50000000  0.53077766  0.91579714  1
  C  C126  1  0.50000000  0.53073046  0.66692788  1
  C  C127  1  0.50000000  0.53073570  0.79144176  1
  C  C128  1  0.50000000  0.59219772  0.08308509  1
  C  C129  1  0.50000000  0.59238079  0.58380521  1
  C  C130  1  0.50000000  0.59224237  0.45913201  1
  C  C131  1  0.50000000  0.59244672  0.95775428  1
  C  C132  1  0.50000000  0.59221181  0.20836934  1
  C  C133  1  0.50000000  0.59230023  0.70843621  1
  C  C134  1  0.50000000  0.59217293  0.33355161  1
  C  C135  1  0.50000000  0.59231191  0.83306911  1
  C  C136  1  0.50000000  0.62280192  0.10386153  1
  C  C137  1  0.50000000  0.62302048  0.60442903  1
  C  C138  1  0.50000000  0.62310414  0.47957475  1
  C  C139  1  0.50000000  0.62302860  0.97877191  1
  C  C140  1  0.50000000  0.62280268  0.22906951  1
  C  C141  1  0.50000000  0.62296659  0.72919011  1
  C  C142  1  0.50000000  0.62276371  0.35426871  1
  C  C143  1  0.50000000  0.62293828  0.85393559  1
  C  C144  1  0.50000000  0.56275905  0.01924707  1
  C  C145  1  0.50000000  0.56185369  0.52125837  1
  C  C146  1  0.50000000  0.56227532  0.39517922  1
  C  C147  1  0.50000000  0.56167734  0.89514814  1
  C  C148  1  0.50000000  0.56237653  0.14471701  1
  C  C149  1  0.50000000  0.56161327  0.64608152  1
  C  C150  1  0.50000000  0.56229169  0.26990818  1
  C  C151  1  0.50000000  0.56158788  0.77064321  1
  C  C152  1  0.50000000  0.59228782  0.04070239  1
  C  C153  1  0.50000000  0.59245101  0.54206822  1
  C  C154  1  0.50000000  0.59213143  0.41673339  1
  C  C155  1  0.50000000  0.59235201  0.91601931  1
  C  C156  1  0.50000000  0.59223423  0.16622754  1
  C  C157  1  0.50000000  0.59232508  0.66673790  1
  C  C158  1  0.50000000  0.59218626  0.29140535  1
  C  C159  1  0.50000000  0.59228666  0.79136777  1
  C  C160  1  0.50000000  0.65382319  0.08299037  1
  C  C161  1  0.50000000  0.65392051  0.58345034  1
  C  C162  1  0.50000000  0.65387406  0.45845874  1
  C  C163  1  0.50000000  0.65396027  0.95793755  1
  C  C164  1  0.50000000  0.65374700  0.20813297  1
  C  C165  1  0.50000000  0.65384895  0.70830814  1
  C  C166  1  0.50000000  0.65370249  0.33331234  1
  C  C167  1  0.50000000  0.65382276  0.83311016  1
  C  C168  1  0.50000000  0.68435400  0.10369593  1
  C  C169  1  0.50000000  0.68455729  0.60406614  1
  C  C170  1  0.50000000  0.68455273  0.47907246  1
  C  C171  1  0.50000000  0.68457031  0.97865918  1
  C  C172  1  0.50000000  0.68434205  0.22883503  1
  C  C173  1  0.50000000  0.68452828  0.72893081  1
  C  C174  1  0.50000000  0.68431847  0.35396997  1
  C  C175  1  0.50000000  0.68447853  0.85377294  1
  C  C176  1  0.50000000  0.62313545  0.02023673  1
  C  C177  1  0.50000000  0.62303097  0.52104536  1
  C  C178  1  0.50000000  0.62273117  0.39593978  1
  C  C179  1  0.50000000  0.62298429  0.89539411  1
  C  C180  1  0.50000000  0.62282883  0.14552119  1
  C  C181  1  0.50000000  0.62296319  0.64588462  1
  C  C182  1  0.50000000  0.62278675  0.27071352  1
  C  C183  1  0.50000000  0.62295593  0.77062076  1
  C  C184  1  0.50000000  0.65391949  0.04133248  1
  C  C185  1  0.50000000  0.65397666  0.54187388  1
  C  C186  1  0.50000000  0.65375930  0.41680018  1
  C  C187  1  0.50000000  0.65389739  0.91635473  1
  C  C188  1  0.50000000  0.65375721  0.16648717  1
  C  C189  1  0.50000000  0.65385397  0.66670966  1
  C  C190  1  0.50000000  0.65371936  0.29166505  1
  C  C191  1  0.50000000  0.65382828  0.79151657  1
  C  C192  1  0.50000000  0.71437713  0.08232704  1
  C  C193  1  0.50000000  0.71454104  0.58260293  1
  C  C194  1  0.50000000  0.71446669  0.45747180  1
  C  C195  1  0.50000000  0.71454813  0.95719813  1
  C  C196  1  0.50000000  0.71426056  0.20735494  1
  C  C197  1  0.50000000  0.71449686  0.70747680  1
  C  C198  1  0.50000000  0.71422994  0.33249395  1
  C  C199  1  0.50000000  0.71444781  0.83239664  1
  C  C200  1  0.50000000  0.68459092  0.02071728  1
  C  C201  1  0.50000000  0.68457574  0.52112892  1
  C  C202  1  0.50000000  0.68429413  0.39608794  1
  C  C203  1  0.50000000  0.68454959  0.89573271  1
  C  C204  1  0.50000000  0.68437207  0.14582100  1
  C  C205  1  0.50000000  0.68451637  0.64605488  1
  C  C206  1  0.50000000  0.68432370  0.27096466  1
  C  C207  1  0.50000000  0.68452168  0.77090888  1
  C  C208  1  0.50000000  0.71452307  0.04230222  1
  C  C209  1  0.50000000  0.71455114  0.54262511  1
  C  C210  1  0.50000000  0.71430285  0.41746771  1
  C  C211  1  0.50000000  0.71453845  0.91720322  1
  C  C212  1  0.50000000  0.71428290  0.16729822  1
  C  C213  1  0.50000000  0.71448465  0.66749266  1
  C  C214  1  0.50000000  0.71422544  0.29244570  1
  C  C215  1  0.50000000  0.71447814  0.79240106  1
  H  H216  1  0.50000000  0.26175015  0.09754249  1
  H  H217  1  0.50000000  0.26149808  0.59756074  1
  H  H218  1  0.50000000  0.26147650  0.47223482  1
  H  H219  1  0.50000000  0.26153614  0.97230731  1
  H  H220  1  0.50000000  0.26174177  0.22228580  1
  H  H221  1  0.50000000  0.26154472  0.72239928  1
  H  H222  1  0.50000000  0.26176141  0.34735710  1
  H  H223  1  0.50000000  0.26162588  0.84745602  1
  H  H224  1  0.50000000  0.26142459  0.02749255  1
  H  H225  1  0.50000000  0.26146168  0.52772983  1
  H  H226  1  0.50000000  0.26181655  0.40234287  1
  H  H227  1  0.50000000  0.26154562  0.90209352  1
  H  H228  1  0.50000000  0.26171314  0.15237387  1
  H  H229  1  0.50000000  0.26158473  0.65247914  1
  H  H230  1  0.50000000  0.26178755  0.27754498  1
  H  H231  1  0.50000000  0.26156388  0.77741683  1
  H  H232  1  0.50000000  0.73823992  0.09753870  1
  H  H233  1  0.50000000  0.73851533  0.59756770  1
  H  H234  1  0.50000000  0.73853423  0.47222971  1
  H  H235  1  0.50000000  0.73845424  0.97230956  1
  H  H236  1  0.50000000  0.73825344  0.22226992  1
  H  H237  1  0.50000000  0.73846447  0.72240993  1
  H  H238  1  0.50000000  0.73824040  0.34735595  1
  H  H239  1  0.50000000  0.73837628  0.84745862  1
  H  H240  1  0.50000000  0.73857384  0.02748766  1
  H  H241  1  0.50000000  0.73855234  0.52773505  1
  H  H242  1  0.50000000  0.73819166  0.40234022  1
  H  H243  1  0.50000000  0.73845308  0.90209598  1
  H  H244  1  0.50000000  0.73827357  0.15235552  1
  H  H245  1  0.50000000  0.73842902  0.65249041  1
  H  H246  1  0.50000000  0.73822255  0.27754766  1
  H  H247  1  0.50000000  0.73843939  0.77741827  1
  H  H248  1  0.50000000  0.46172791  0.08986858  1
  H  H249  1  0.50000000  0.46070455  0.46468119  1
  H  H250  1  0.50000000  0.46160509  0.21479088  1
  H  H251  1  0.50000000  0.46161314  0.33997959  1
  H  H252  1  0.50000000  0.50000397  0.00799304  1
  H  H253  1  0.50000000  0.46073086  0.03497132  1
  H  H254  1  0.50000000  0.46179026  0.41001659  1
  H  H255  1  0.50000000  0.46151904  0.15979560  1
  H  H256  1  0.50000000  0.46163460  0.28494524  1
  H  H257  1  0.50000000  0.53826470  0.08987001  1
  H  H258  1  0.50000000  0.53928178  0.46469689  1
  H  H259  1  0.50000000  0.53838568  0.21479331  1
  H  H260  1  0.50000000  0.53839560  0.33998231  1
  H  H261  1  0.50000000  0.49999538  0.49177563  1
  H  H262  1  0.50000000  0.53927926  0.03501449  1
  H  H263  1  0.50000000  0.53822954  0.41002125  1
  H  H264  1  0.50000000  0.53847066  0.15977950  1
  H  H265  1  0.50000000  0.53836757  0.28494923  1
