# generated using pymatgen
data_H25C112
_symmetry_space_group_name_H-M   'P 1'
_cell_length_a   20.00000000
_cell_length_b   40.19450000
_cell_length_c   34.50246182
_cell_angle_alpha   90.00000000
_cell_angle_beta   90.00000000
_cell_angle_gamma   90.00000000
_symmetry_Int_Tables_number   1
_chemical_formula_structural   H25C112
_chemical_formula_sum   'H50 C224'
_cell_volume   27736.18403503
_cell_formula_units_Z   2
loop_
 _symmetry_equiv_pos_site_id
 _symmetry_equiv_pos_as_xyz
  1  'x, y, z'
loop_
 _atom_site_type_symbol
 _atom_site_label
 _atom_site_symmetry_multiplicity
 _atom_site_fract_x
 _atom_site_fract_y
 _atom_site_fract_z
 _atom_site_occupancy
  C  C0  1  0.50000000  0.27975511  0.07867208  1
  C  C1  1  0.50000000  0.28733745  0.58432686  1
  C  C2  1  0.50000000  0.28227605  0.46091697  1
  C  C3  1  0.50000000  0.28642107  0.95509113  1
  C  C4  1  0.50000000  0.27521367  0.20581360  1
  C  C5  1  0.50000000  0.28813745  0.70770758  1
  C  C6  1  0.50000000  0.27614839  0.33415313  1
  C  C7  1  0.50000000  0.28809008  0.83190356  1
  C  C8  1  0.50000000  0.30845615  0.10256401  1
  C  C9  1  0.50000000  0.31791717  0.60469444  1
  C  C10  1  0.50000000  0.31343959  0.48063980  1
  C  C11  1  0.50000000  0.31587752  0.97761905  1
  C  C12  1  0.50000000  0.30459722  0.22892431  1
  C  C13  1  0.50000000  0.31817217  0.72904470  1
  C  C14  1  0.50000000  0.30661354  0.35532358  1
  C  C15  1  0.50000000  0.31808432  0.85335665  1
  C  C16  1  0.50000000  0.28225392  0.03887597  1
  C  C17  1  0.50000000  0.28642712  0.54472244  1
  C  C18  1  0.50000000  0.27976202  0.42112295  1
  C  C19  1  0.50000000  0.28730929  0.91548146  1
  C  C20  1  0.50000000  0.27613753  0.16568496  1
  C  C21  1  0.50000000  0.28809043  0.66792083  1
  C  C22  1  0.50000000  0.27520669  0.29402606  1
  C  C23  1  0.50000000  0.28812751  0.79207741  1
  C  C24  1  0.50000000  0.34014434  0.08330310  1
  C  C25  1  0.50000000  0.34821005  0.58346929  1
  C  C26  1  0.50000000  0.34308359  0.45831683  1
  C  C27  1  0.50000000  0.34761477  0.95828950  1
  C  C28  1  0.50000000  0.33562508  0.20847705  1
  C  C29  1  0.50000000  0.34877227  0.70842462  1
  C  C30  1  0.50000000  0.33652589  0.33292316  1
  C  C31  1  0.50000000  0.34870916  0.83283839  1
  C  C32  1  0.50000000  0.36931020  0.10650487  1
  C  C33  1  0.50000000  0.37910275  0.60448899  1
  C  C34  1  0.50000000  0.37523005  0.47758114  1
  C  C35  1  0.50000000  0.37802200  0.98023874  1
  C  C36  1  0.50000000  0.36626631  0.22931730  1
  C  C37  1  0.50000000  0.37959963  0.72921924  1
  C  C38  1  0.50000000  0.36785723  0.35219014  1
  C  C39  1  0.50000000  0.37936856  0.85387029  1
  C  C40  1  0.50000000  0.31341671  0.01912695  1
  C  C41  1  0.50000000  0.31587776  0.52215565  1
  C  C42  1  0.50000000  0.30847746  0.39725148  1
  C  C43  1  0.50000000  0.31788573  0.89508208  1
  C  C44  1  0.50000000  0.30659752  0.14449846  1
  C  C45  1  0.50000000  0.31807920  0.64642363  1
  C  C46  1  0.50000000  0.30458816  0.27088996  1
  C  C47  1  0.50000000  0.31817186  0.77076225  1
  C  C48  1  0.50000000  0.34305997  0.04145741  1
  C  C49  1  0.50000000  0.34762715  0.54147518  1
  C  C50  1  0.50000000  0.34016451  0.41647858  1
  C  C51  1  0.50000000  0.34819554  0.91629381  1
  C  C52  1  0.50000000  0.33652695  0.16687748  1
  C  C53  1  0.50000000  0.34870702  0.66691807  1
  C  C54  1  0.50000000  0.33561708  0.29132936  1
  C  C55  1  0.50000000  0.34876864  0.79133099  1
  C  C56  1  0.50000000  0.40019903  0.08749486  1
  C  C57  1  0.50000000  0.40964625  0.58369498  1
  C  C58  1  0.50000000  0.40274678  0.45155677  1
  C  C59  1  0.50000000  0.40950073  0.95799673  1
  C  C60  1  0.50000000  0.39683750  0.20887962  1
  C  C61  1  0.50000000  0.41021015  0.70837902  1
  C  C62  1  0.50000000  0.39765058  0.33030808  1
  C  C63  1  0.50000000  0.41009503  0.83293224  1
  C  C64  1  0.50000000  0.44051017  0.60471459  1
  C  C65  1  0.50000000  0.44111183  0.97471990  1
  C  C66  1  0.50000000  0.44087613  0.72912197  1
  C  C67  1  0.50000000  0.44066482  0.85351874  1
  C  C68  1  0.50000000  0.37520337  0.02218065  1
  C  C69  1  0.50000000  0.37803985  0.51952134  1
  C  C70  1  0.50000000  0.36931234  0.39325624  1
  C  C71  1  0.50000000  0.37908470  0.89524893  1
  C  C72  1  0.50000000  0.36784238  0.14757531  1
  C  C73  1  0.50000000  0.37936788  0.64586653  1
  C  C74  1  0.50000000  0.36625863  0.27046458  1
  C  C75  1  0.50000000  0.37959570  0.77051756  1
  C  C76  1  0.50000000  0.40272948  0.04817767  1
  C  C77  1  0.50000000  0.40952860  0.54174064  1
  C  C78  1  0.50000000  0.40019946  0.41224594  1
  C  C79  1  0.50000000  0.40962410  0.91603704  1
  C  C80  1  0.50000000  0.39763160  0.16943747  1
  C  C81  1  0.50000000  0.41009606  0.66679079  1
  C  C82  1  0.50000000  0.39683915  0.29087183  1
  C  C83  1  0.50000000  0.41021360  0.79133782  1
  C  C84  1  0.50000000  0.47177712  0.58505964  1
  C  C85  1  0.50000000  0.47160451  0.95561834  1
  C  C86  1  0.50000000  0.47167361  0.70839160  1
  C  C87  1  0.50000000  0.47158539  0.83270970  1
  C  C88  1  0.50000000  0.50236419  0.10409100  1
  C  C89  1  0.50000000  0.50262578  0.60534373  1
  C  C90  1  0.50000000  0.50326649  0.48144477  1
  C  C91  1  0.50000000  0.50243403  0.97757334  1
  C  C92  1  0.50000000  0.50199642  0.22990781  1
  C  C93  1  0.50000000  0.50245857  0.72908446  1
  C  C94  1  0.50000000  0.50220741  0.35570342  1
  C  C95  1  0.50000000  0.50250488  0.85307251  1
  C  C96  1  0.50000000  0.44114077  0.52498234  1
  C  C97  1  0.50000000  0.44048885  0.89501181  1
  C  C98  1  0.50000000  0.44067377  0.64620766  1
  C  C99  1  0.50000000  0.44088031  0.77058561  1
  C  C100  1  0.50000000  0.47163221  0.54411277  1
  C  C101  1  0.50000000  0.47174832  0.91467608  1
  C  C102  1  0.50000000  0.47159291  0.66701719  1
  C  C103  1  0.50000000  0.47167316  0.79132507  1
  C  C104  1  0.50000000  0.53214677  0.08253721  1
  C  C105  1  0.50000000  0.53318877  0.58429663  1
  C  C106  1  0.50000000  0.53254304  0.45973395  1
  C  C107  1  0.50000000  0.53310408  0.95704219  1
  C  C108  1  0.50000000  0.53177748  0.20823968  1
  C  C109  1  0.50000000  0.53321968  0.70853420  1
  C  C110  1  0.50000000  0.53186729  0.33388282  1
  C  C111  1  0.50000000  0.53322931  0.83259013  1
  C  C112  1  0.50000000  0.56272887  0.10353467  1
  C  C113  1  0.50000000  0.56400400  0.60477803  1
  C  C114  1  0.50000000  0.56360003  0.48001218  1
  C  C115  1  0.50000000  0.56361919  0.97828951  1
  C  C116  1  0.50000000  0.56243894  0.22908467  1
  C  C117  1  0.50000000  0.56406150  0.72918377  1
  C  C118  1  0.50000000  0.56262018  0.35458249  1
  C  C119  1  0.50000000  0.56395018  0.85354709  1
  C  C120  1  0.50000000  0.50318521  0.01838972  1
  C  C121  1  0.50000000  0.50250735  0.52223848  1
  C  C122  1  0.50000000  0.50242827  0.39585594  1
  C  C123  1  0.50000000  0.50259168  0.89440811  1
  C  C124  1  0.50000000  0.50220531  0.14425829  1
  C  C125  1  0.50000000  0.50252665  0.64667291  1
  C  C126  1  0.50000000  0.50199692  0.27004000  1
  C  C127  1  0.50000000  0.50245509  0.77063159  1
  C  C128  1  0.50000000  0.53244995  0.04012920  1
  C  C129  1  0.50000000  0.53318904  0.54276710  1
  C  C130  1  0.50000000  0.53223752  0.41734993  1
  C  C131  1  0.50000000  0.53312430  0.91549323  1
  C  C132  1  0.50000000  0.53188101  0.16602587  1
  C  C133  1  0.50000000  0.53326336  0.66715862  1
  C  C134  1  0.50000000  0.53177767  0.29167923  1
  C  C135  1  0.50000000  0.53320039  0.79120625  1
  C  C136  1  0.50000000  0.59366339  0.08284422  1
  C  C137  1  0.50000000  0.59463141  0.58380657  1
  C  C138  1  0.50000000  0.59405575  0.45882733  1
  C  C139  1  0.50000000  0.59445066  0.95770884  1
  C  C140  1  0.50000000  0.59323642  0.20811958  1
  C  C141  1  0.50000000  0.59475337  0.70845263  1
  C  C142  1  0.50000000  0.59333885  0.33351857  1
  C  C143  1  0.50000000  0.59470302  0.83301921  1
  C  C144  1  0.50000000  0.62399234  0.10381938  1
  C  C145  1  0.50000000  0.62529643  0.60441031  1
  C  C146  1  0.50000000  0.62471475  0.47942070  1
  C  C147  1  0.50000000  0.62483156  0.97879495  1
  C  C148  1  0.50000000  0.62369499  0.22902284  1
  C  C149  1  0.50000000  0.62539711  0.72918103  1
  C  C150  1  0.50000000  0.62388938  0.35424349  1
  C  C151  1  0.50000000  0.62527123  0.85392424  1
  C  C152  1  0.50000000  0.56350028  0.01982677  1
  C  C153  1  0.50000000  0.56371853  0.52154444  1
  C  C154  1  0.50000000  0.56280907  0.39631156  1
  C  C155  1  0.50000000  0.56393046  0.89501090  1
  C  C156  1  0.50000000  0.56259400  0.14526195  1
  C  C157  1  0.50000000  0.56401067  0.64623804  1
  C  C158  1  0.50000000  0.56243090  0.27082258  1
  C  C159  1  0.50000000  0.56405059  0.77057622  1
  C  C160  1  0.50000000  0.59395085  0.04100980  1
  C  C161  1  0.50000000  0.59455676  0.54210948  1
  C  C162  1  0.50000000  0.59375964  0.41698760  1
  C  C163  1  0.50000000  0.59453960  0.91600442  1
  C  C164  1  0.50000000  0.59332090  0.16631042  1
  C  C165  1  0.50000000  0.59476218  0.66678052  1
  C  C166  1  0.50000000  0.59324452  0.29169350  1
  C  C167  1  0.50000000  0.59472369  0.79134192  1
  C  C168  1  0.50000000  0.65494332  0.08316064  1
  C  C169  1  0.50000000  0.65605265  0.58335641  1
  C  C170  1  0.50000000  0.65537209  0.45825573  1
  C  C171  1  0.50000000  0.65577393  0.95810718  1
  C  C172  1  0.50000000  0.65450404  0.20817507  1
  C  C173  1  0.50000000  0.65626825  0.70830203  1
  C  C174  1  0.50000000  0.65462084  0.33324950  1
  C  C175  1  0.50000000  0.65617532  0.83317136  1
  C  C176  1  0.50000000  0.68547121  0.10398137  1
  C  C177  1  0.50000000  0.68678570  0.60392503  1
  C  C178  1  0.50000000  0.68617778  0.47879608  1
  C  C179  1  0.50000000  0.68631500  0.97898209  1
  C  C180  1  0.50000000  0.68516515  0.22889178  1
  C  C181  1  0.50000000  0.68693822  0.72895706  1
  C  C182  1  0.50000000  0.68538454  0.35375799  1
  C  C183  1  0.50000000  0.68678164  0.85396815  1
  C  C184  1  0.50000000  0.62459452  0.02039979  1
  C  C185  1  0.50000000  0.62494987  0.52103467  1
  C  C186  1  0.50000000  0.62407268  0.39599389  1
  C  C187  1  0.50000000  0.62520110  0.89541321  1
  C  C188  1  0.50000000  0.62385382  0.14555997  1
  C  C189  1  0.50000000  0.62534986  0.64590572  1
  C  C190  1  0.50000000  0.62369039  0.27076688  1
  C  C191  1  0.50000000  0.62538030  0.77064286  1
  C  C192  1  0.50000000  0.65526077  0.04154080  1
  C  C193  1  0.50000000  0.65588969  0.54172291  1
  C  C194  1  0.50000000  0.65504475  0.41662855  1
  C  C195  1  0.50000000  0.65594474  0.91648693  1
  C  C196  1  0.50000000  0.65459446  0.16652963  1
  C  C197  1  0.50000000  0.65624631  0.66668915  1
  C  C198  1  0.50000000  0.65448851  0.29159654  1
  C  C199  1  0.50000000  0.65623213  0.79156016  1
  C  C200  1  0.50000000  0.71547151  0.08277786  1
  C  C201  1  0.50000000  0.71658859  0.58222368  1
  C  C202  1  0.50000000  0.71589315  0.45702586  1
  C  C203  1  0.50000000  0.71631110  0.95767470  1
  C  C204  1  0.50000000  0.71503910  0.20750566  1
  C  C205  1  0.50000000  0.71684529  0.70740542  1
  C  C206  1  0.50000000  0.71514969  0.33220052  1
  C  C207  1  0.50000000  0.71673928  0.83254897  1
  C  C208  1  0.50000000  0.68606272  0.02101878  1
  C  C209  1  0.50000000  0.68643766  0.52084379  1
  C  C210  1  0.50000000  0.68556299  0.39576589  1
  C  C211  1  0.50000000  0.68668533  0.89596358  1
  C  C212  1  0.50000000  0.68533553  0.14597896  1
  C  C213  1  0.50000000  0.68687011  0.64592733  1
  C  C214  1  0.50000000  0.68513486  0.27085713  1
  C  C215  1  0.50000000  0.68692181  0.77095185  1
  C  C216  1  0.50000000  0.71580249  0.04275692  1
  C  C217  1  0.50000000  0.71642410  0.54220173  1
  C  C218  1  0.50000000  0.71556140  0.41700255  1
  C  C219  1  0.50000000  0.71648509  0.91766863  1
  C  C220  1  0.50000000  0.71512533  0.16746750  1
  C  C221  1  0.50000000  0.71680744  0.66740922  1
  C  C222  1  0.50000000  0.71501994  0.29215203  1
  C  C223  1  0.50000000  0.71680654  0.79255853  1
  H  H224  1  0.50000000  0.25490470  0.09162086  1
  H  H225  1  0.50000000  0.26388238  0.60021196  1
  H  H226  1  0.50000000  0.25914467  0.47752967  1
  H  H227  1  0.50000000  0.26215897  0.96931373  1
  H  H228  1  0.50000000  0.25085596  0.22002531  1
  H  H229  1  0.50000000  0.26422868  0.72270234  1
  H  H230  1  0.50000000  0.25241933  0.34975945  1
  H  H231  1  0.50000000  0.26417675  0.84688530  1
  H  H232  1  0.50000000  0.25903265  0.02242857  1
  H  H233  1  0.50000000  0.26214940  0.53053071  1
  H  H234  1  0.50000000  0.25497167  0.40801713  1
  H  H235  1  0.50000000  0.26374869  0.89982450  1
  H  H236  1  0.50000000  0.25242595  0.15004372  1
  H  H237  1  0.50000000  0.26408199  0.65318119  1
  H  H238  1  0.50000000  0.25077865  0.27997611  1
  H  H239  1  0.50000000  0.26424332  0.77700846  1
  H  H240  1  0.50000000  0.73927580  0.09804583  1
  H  H241  1  0.50000000  0.74065800  0.59696929  1
  H  H242  1  0.50000000  0.74000672  0.47166002  1
  H  H243  1  0.50000000  0.74020071  0.97277681  1
  H  H244  1  0.50000000  0.73898501  0.22245374  1
  H  H245  1  0.50000000  0.74085224  0.72229328  1
  H  H246  1  0.50000000  0.73916680  0.34699726  1
  H  H247  1  0.50000000  0.74067939  0.84758653  1
  H  H248  1  0.50000000  0.73991116  0.02809276  1
  H  H249  1  0.50000000  0.74037253  0.52719444  1
  H  H250  1  0.50000000  0.73940755  0.40182111  1
  H  H251  1  0.50000000  0.74054905  0.90295333  1
  H  H252  1  0.50000000  0.73909430  0.15254286  1
  H  H253  1  0.50000000  0.74078500  0.65246907  1
  H  H254  1  0.50000000  0.73897125  0.27720895  1
  H  H255  1  0.50000000  0.74084752  0.77775954  1
  H  H256  1  0.50000000  0.42339188  0.10383391  1
  H  H257  1  0.50000000  0.42817708  0.46077573  1
  H  H258  1  0.50000000  0.42043672  0.22439371  1
  H  H259  1  0.50000000  0.42175838  0.34472873  1
  H  H260  1  0.50000000  0.44395774  0.00533676  1
  H  H261  1  0.50000000  0.42812480  0.03881724  1
  H  H262  1  0.50000000  0.42335144  0.39581773  1
  H  H263  1  0.50000000  0.42177488  0.15513147  1
  H  H264  1  0.50000000  0.42037125  0.27520825  1
  H  H265  1  0.50000000  0.47840397  0.08913617  1
  H  H266  1  0.50000000  0.47989096  0.46552220  1
  H  H267  1  0.50000000  0.47798564  0.21503492  1
  H  H268  1  0.50000000  0.47812902  0.34099244  1
  H  H269  1  0.50000000  0.44391661  0.49433692  1
  H  H270  1  0.50000000  0.47981493  0.03432053  1
  H  H271  1  0.50000000  0.47845672  0.41080860  1
  H  H272  1  0.50000000  0.47821341  0.15916821  1
  H  H273  1  0.50000000  0.47801411  0.28497850  1
