# generated using pymatgen
data_H25C112
_symmetry_space_group_name_H-M   'P 1'
_cell_length_a   20.00000000
_cell_length_b   40.19450000
_cell_length_c   34.50216400
_cell_angle_alpha   90.00000000
_cell_angle_beta   90.00000000
_cell_angle_gamma   90.00000000
_symmetry_Int_Tables_number   1
_chemical_formula_structural   H25C112
_chemical_formula_sum   'H50 C224'
_cell_volume   27735.94461958
_cell_formula_units_Z   2
loop_
 _symmetry_equiv_pos_site_id
 _symmetry_equiv_pos_as_xyz
  1  'x, y, z'
loop_
 _atom_site_type_symbol
 _atom_site_label
 _atom_site_symmetry_multiplicity
 _atom_site_fract_x
 _atom_site_fract_y
 _atom_site_fract_z
 _atom_site_occupancy
  C  C0  1  0.50000000  0.28228634  0.07990723  1
  C  C1  1  0.50000000  0.28640992  0.58404127  1
  C  C2  1  0.50000000  0.28354388  0.45988119  1
  C  C3  1  0.50000000  0.28590380  0.95558373  1
  C  C4  1  0.50000000  0.27985448  0.20632543  1
  C  C5  1  0.50000000  0.28723540  0.70787624  1
  C  C6  1  0.50000000  0.28029731  0.33356405  1
  C  C7  1  0.50000000  0.28722399  0.83189742  1
  C  C8  1  0.50000000  0.31162039  0.10268361  1
  C  C9  1  0.50000000  0.31679347  0.60474963  1
  C  C10  1  0.50000000  0.31415158  0.48047520  1
  C  C11  1  0.50000000  0.31555972  0.97763256  1
  C  C12  1  0.50000000  0.30950657  0.22880888  1
  C  C13  1  0.50000000  0.31731287  0.72904011  1
  C  C14  1  0.50000000  0.31049219  0.35508520  1
  C  C15  1  0.50000000  0.31717131  0.85333317  1
  C  C16  1  0.50000000  0.28366583  0.04001189  1
  C  C17  1  0.50000000  0.28579024  0.54426758  1
  C  C18  1  0.50000000  0.28219162  0.41999000  1
  C  C19  1  0.50000000  0.28654520  0.91583315  1
  C  C20  1  0.50000000  0.28039361  0.16626388  1
  C  C21  1  0.50000000  0.28715720  0.66802786  1
  C  C22  1  0.50000000  0.27978060  0.29348573  1
  C  C23  1  0.50000000  0.28727971  0.79205595  1
  C  C24  1  0.50000000  0.34272914  0.08262116  1
  C  C25  1  0.50000000  0.34720404  0.58373102  1
  C  C26  1  0.50000000  0.34418574  0.45899573  1
  C  C27  1  0.50000000  0.34672004  0.95768163  1
  C  C28  1  0.50000000  0.34022512  0.20807507  1
  C  C29  1  0.50000000  0.34792574  0.70833443  1
  C  C30  1  0.50000000  0.34073240  0.33366191  1
  C  C31  1  0.50000000  0.34792220  0.83304707  1
  C  C32  1  0.50000000  0.37288574  0.10434265  1
  C  C33  1  0.50000000  0.37843135  0.60413449  1
  C  C34  1  0.50000000  0.37562638  0.47932120  1
  C  C35  1  0.50000000  0.37730573  0.97918851  1
  C  C36  1  0.50000000  0.37079895  0.22935944  1
  C  C37  1  0.50000000  0.37875016  0.72919892  1
  C  C38  1  0.50000000  0.37178892  0.35417721  1
  C  C39  1  0.50000000  0.37867259  0.85414187  1
  C  C40  1  0.50000000  0.31427850  0.01943485  1
  C  C41  1  0.50000000  0.31546350  0.52226965  1
  C  C42  1  0.50000000  0.31150390  0.39717915  1
  C  C43  1  0.50000000  0.31690187  0.89511575  1
  C  C44  1  0.50000000  0.31059736  0.14476795  1
  C  C45  1  0.50000000  0.31708494  0.64654206  1
  C  C46  1  0.50000000  0.30947165  0.27104551  1
  C  C47  1  0.50000000  0.31734673  0.77085946  1
  C  C48  1  0.50000000  0.34431587  0.04089434  1
  C  C49  1  0.50000000  0.34663503  0.54219150  1
  C  C50  1  0.50000000  0.34260686  0.41726125  1
  C  C51  1  0.50000000  0.34729635  0.91613939  1
  C  C52  1  0.50000000  0.34082350  0.16622214  1
  C  C53  1  0.50000000  0.34784997  0.66679717  1
  C  C54  1  0.50000000  0.34017529  0.29181460  1
  C  C55  1  0.50000000  0.34797577  0.79151553  1
  C  C56  1  0.50000000  0.40403572  0.08409375  1
  C  C57  1  0.50000000  0.40900999  0.58302941  1
  C  C58  1  0.50000000  0.40579913  0.45765543  1
  C  C59  1  0.50000000  0.40889025  0.95897986  1
  C  C60  1  0.50000000  0.40168346  0.20885730  1
  C  C61  1  0.50000000  0.40931277  0.70831086  1
  C  C62  1  0.50000000  0.40201880  0.33243746  1
  C  C63  1  0.50000000  0.40926932  0.83321223  1
  C  C64  1  0.50000000  0.43344101  0.10653343  1
  C  C65  1  0.50000000  0.43963091  0.60426452  1
  C  C66  1  0.50000000  0.43735771  0.47744742  1
  C  C67  1  0.50000000  0.43943190  0.98016162  1
  C  C68  1  0.50000000  0.43224852  0.22933016  1
  C  C69  1  0.50000000  0.43994967  0.72912826  1
  C  C70  1  0.50000000  0.43280462  0.35213886  1
  C  C71  1  0.50000000  0.43984909  0.85396225  1
  C  C72  1  0.50000000  0.37574139  0.02055562  1
  C  C73  1  0.50000000  0.37721892  0.52067897  1
  C  C74  1  0.50000000  0.37277155  0.39554878  1
  C  C75  1  0.50000000  0.37850117  0.89571545  1
  C  C76  1  0.50000000  0.37189289  0.14571724  1
  C  C77  1  0.50000000  0.37860749  0.64569860  1
  C  C78  1  0.50000000  0.37077529  0.27056785  1
  C  C79  1  0.50000000  0.37876819  0.77060785  1
  C  C80  1  0.50000000  0.40591621  0.04221412  1
  C  C81  1  0.50000000  0.40882350  0.54085881  1
  C  C82  1  0.50000000  0.40392131  0.41579646  1
  C  C83  1  0.50000000  0.40907444  0.91679854  1
  C  C84  1  0.50000000  0.40210702  0.16749308  1
  C  C85  1  0.50000000  0.40923313  0.66658729  1
  C  C86  1  0.50000000  0.40164694  0.29108947  1
  C  C87  1  0.50000000  0.40933568  0.79148603  1
  C  C88  1  0.50000000  0.46386871  0.08696287  1
  C  C89  1  0.50000000  0.47050668  0.58372279  1
  C  C90  1  0.50000000  0.46534920  0.45225778  1
  C  C91  1  0.50000000  0.47067026  0.95775053  1
  C  C92  1  0.50000000  0.46262464  0.20864022  1
  C  C93  1  0.50000000  0.47071587  0.70827142  1
  C  C94  1  0.50000000  0.46289841  0.33090697  1
  C  C95  1  0.50000000  0.47064934  0.83295172  1
  C  C96  1  0.50000000  0.50136727  0.60475958  1
  C  C97  1  0.50000000  0.50244661  0.97438654  1
  C  C98  1  0.50000000  0.50142940  0.72907708  1
  C  C99  1  0.50000000  0.50140150  0.85341779  1
  C  C100  1  0.50000000  0.43746972  0.02240688  1
  C  C101  1  0.50000000  0.43936997  0.51966535  1
  C  C102  1  0.50000000  0.43333286  0.39338404  1
  C  C103  1  0.50000000  0.43966839  0.89550563  1
  C  C104  1  0.50000000  0.43290811  0.14780284  1
  C  C105  1  0.50000000  0.43981372  0.64581292  1
  C  C106  1  0.50000000  0.43223736  0.27065856  1
  C  C107  1  0.50000000  0.43996017  0.77065092  1
  C  C108  1  0.50000000  0.46544969  0.04761905  1
  C  C109  1  0.50000000  0.47066765  0.54202405  1
  C  C110  1  0.50000000  0.46377290  0.41292510  1
  C  C111  1  0.50000000  0.47052477  0.91603051  1
  C  C112  1  0.50000000  0.46298165  0.16910463  1
  C  C113  1  0.50000000  0.47063191  0.66680039  1
  C  C114  1  0.50000000  0.46259723  0.29138981  1
  C  C115  1  0.50000000  0.47072762  0.79148299  1
  C  C116  1  0.50000000  0.53267668  0.58523341  1
  C  C117  1  0.50000000  0.53276149  0.95537095  1
  C  C118  1  0.50000000  0.53220228  0.70844847  1
  C  C119  1  0.50000000  0.53220163  0.83264503  1
  C  C120  1  0.50000000  0.56386207  0.10403693  1
  C  C121  1  0.50000000  0.56356172  0.60554343  1
  C  C122  1  0.50000000  0.56455774  0.48154824  1
  C  C123  1  0.50000000  0.56371405  0.97748169  1
  C  C124  1  0.50000000  0.56367515  0.22985614  1
  C  C125  1  0.50000000  0.56312800  0.72917913  1
  C  C126  1  0.50000000  0.56385250  0.35565913  1
  C  C127  1  0.50000000  0.56330070  0.85305118  1
  C  C128  1  0.50000000  0.50244379  0.52533405  1
  C  C129  1  0.50000000  0.50137643  0.89495249  1
  C  C130  1  0.50000000  0.50139606  0.64632023  1
  C  C131  1  0.50000000  0.50143394  0.77066653  1
  C  C132  1  0.50000000  0.53277094  0.54434856  1
  C  C133  1  0.50000000  0.53266919  0.91449115  1
  C  C134  1  0.50000000  0.53220303  0.66709466  1
  C  C135  1  0.50000000  0.53220797  0.79128822  1
  C  C136  1  0.50000000  0.59366977  0.08240957  1
  C  C137  1  0.50000000  0.59420629  0.58447626  1
  C  C138  1  0.50000000  0.59397380  0.45982020  1
  C  C139  1  0.50000000  0.59431262  0.95692627  1
  C  C140  1  0.50000000  0.59348148  0.20816330  1
  C  C141  1  0.50000000  0.59395603  0.70865039  1
  C  C142  1  0.50000000  0.59357460  0.33387318  1
  C  C143  1  0.50000000  0.59404901  0.83259081  1
  C  C144  1  0.50000000  0.62416844  0.10335752  1
  C  C145  1  0.50000000  0.62486440  0.60487138  1
  C  C146  1  0.50000000  0.62486311  0.48015104  1
  C  C147  1  0.50000000  0.62479678  0.97814769  1
  C  C148  1  0.50000000  0.62403450  0.22899386  1
  C  C149  1  0.50000000  0.62467009  0.72922594  1
  C  C150  1  0.50000000  0.62417217  0.35464182  1
  C  C151  1  0.50000000  0.62469167  0.85347450  1
  C  C152  1  0.50000000  0.56448986  0.01819033  1
  C  C153  1  0.50000000  0.56376390  0.52224625  1
  C  C154  1  0.50000000  0.56395296  0.39575752  1
  C  C155  1  0.50000000  0.56355339  0.89421441  1
  C  C156  1  0.50000000  0.56377092  0.14414933  1
  C  C157  1  0.50000000  0.56330970  0.64669860  1
  C  C158  1  0.50000000  0.56368792  0.26993755  1
  C  C159  1  0.50000000  0.56312834  0.77054950  1
  C  C160  1  0.50000000  0.59388171  0.03994107  1
  C  C161  1  0.50000000  0.59439023  0.54278289  1
  C  C162  1  0.50000000  0.59376409  0.41736344  1
  C  C163  1  0.50000000  0.59417189  0.91525698  1
  C  C164  1  0.50000000  0.59351912  0.16588427  1
  C  C165  1  0.50000000  0.59407368  0.66713691  1
  C  C166  1  0.50000000  0.59351005  0.29159435  1
  C  C167  1  0.50000000  0.59394939  0.79107746  1
  C  C168  1  0.50000000  0.65523074  0.08252108  1
  C  C169  1  0.50000000  0.65577039  0.58386874  1
  C  C170  1  0.50000000  0.65556971  0.45891728  1
  C  C171  1  0.50000000  0.65574128  0.95741955  1
  C  C172  1  0.50000000  0.65494340  0.20794515  1
  C  C173  1  0.50000000  0.65557265  0.70841546  1
  C  C174  1  0.50000000  0.65503588  0.33346544  1
  C  C175  1  0.50000000  0.65559464  0.83281029  1
  C  C176  1  0.50000000  0.68568117  0.10339211  1
  C  C177  1  0.50000000  0.68642373  0.60440393  1
  C  C178  1  0.50000000  0.68627625  0.47943599  1
  C  C179  1  0.50000000  0.68628400  0.97826524  1
  C  C180  1  0.50000000  0.68550695  0.22873357  1
  C  C181  1  0.50000000  0.68625300  0.72899081  1
  C  C182  1  0.50000000  0.68567728  0.35409755  1
  C  C183  1  0.50000000  0.68625486  0.85345920  1
  C  C184  1  0.50000000  0.62475937  0.01959028  1
  C  C185  1  0.50000000  0.62489761  0.52159079  1
  C  C186  1  0.50000000  0.62425479  0.39638721  1
  C  C187  1  0.50000000  0.62481270  0.89484893  1
  C  C188  1  0.50000000  0.62410295  0.14509670  1
  C  C189  1  0.50000000  0.62473355  0.64625470  1
  C  C190  1  0.50000000  0.62404642  0.27073337  1
  C  C191  1  0.50000000  0.62466466  0.77050465  1
  C  C192  1  0.50000000  0.65545431  0.04082076  1
  C  C193  1  0.50000000  0.65584868  0.54231904  1
  C  C194  1  0.50000000  0.65533472  0.41720036  1
  C  C195  1  0.50000000  0.65569106  0.91586824  1
  C  C196  1  0.50000000  0.65497302  0.16624619  1
  C  C197  1  0.50000000  0.65563742  0.66693329  1
  C  C198  1  0.50000000  0.65496747  0.29175915  1
  C  C199  1  0.50000000  0.65555668  0.79133467  1
  C  C200  1  0.50000000  0.71571020  0.08203615  1
  C  C201  1  0.50000000  0.71637077  0.58286675  1
  C  C202  1  0.50000000  0.71606988  0.45764019  1
  C  C203  1  0.50000000  0.71627859  0.95685112  1
  C  C204  1  0.50000000  0.71538660  0.20722287  1
  C  C205  1  0.50000000  0.71620550  0.70761633  1
  C  C206  1  0.50000000  0.71547992  0.33243013  1
  C  C207  1  0.50000000  0.71621053  0.83211915  1
  C  C208  1  0.50000000  0.68614525  0.02029484  1
  C  C209  1  0.50000000  0.68640671  0.52146534  1
  C  C210  1  0.50000000  0.68578074  0.39628751  1
  C  C211  1  0.50000000  0.68634370  0.89535741  1
  C  C212  1  0.50000000  0.68558853  0.14557536  1
  C  C213  1  0.50000000  0.68631486  0.64629923  1
  C  C214  1  0.50000000  0.68551104  0.27092527  1
  C  C215  1  0.50000000  0.68625008  0.77080754  1
  C  C216  1  0.50000000  0.71595757  0.04204615  1
  C  C217  1  0.50000000  0.71639169  0.54290700  1
  C  C218  1  0.50000000  0.71580257  0.41765266  1
  C  C219  1  0.50000000  0.71628484  0.91688890  1
  C  C220  1  0.50000000  0.71541473  0.16718495  1
  C  C221  1  0.50000000  0.71623897  0.66769514  1
  C  C222  1  0.50000000  0.71540666  0.29239039  1
  C  C223  1  0.50000000  0.71620486  0.79218690  1
  H  H224  1  0.50000000  0.25788772  0.09395523  1
  H  H225  1  0.50000000  0.26275313  0.59961103  1
  H  H226  1  0.50000000  0.26001713  0.47570493  1
  H  H227  1  0.50000000  0.26168550  0.96993588  1
  H  H228  1  0.50000000  0.25559205  0.22071632  1
  H  H229  1  0.50000000  0.26330414  0.72286233  1
  H  H230  1  0.50000000  0.25647861  0.34891074  1
  H  H231  1  0.50000000  0.26330915  0.84689187  1
  H  H232  1  0.50000000  0.26023006  0.02400937  1
  H  H233  1  0.50000000  0.26168270  0.52963990  1
  H  H234  1  0.50000000  0.25775582  0.40606475  1
  H  H235  1  0.50000000  0.26283382  0.90040222  1
  H  H236  1  0.50000000  0.25652895  0.15103208  1
  H  H237  1  0.50000000  0.26316460  0.65322999  1
  H  H238  1  0.50000000  0.25554316  0.27901312  1
  H  H239  1  0.50000000  0.26338275  0.77699416  1
  H  H240  1  0.50000000  0.73956014  0.09722399  1
  H  H241  1  0.50000000  0.74036875  0.59775141  1
  H  H242  1  0.50000000  0.74018593  0.47227558  1
  H  H243  1  0.50000000  0.74023289  0.97185091  1
  H  H244  1  0.50000000  0.73938170  0.22210079  1
  H  H245  1  0.50000000  0.74015480  0.72257315  1
  H  H246  1  0.50000000  0.73951590  0.34719343  1
  H  H247  1  0.50000000  0.74011871  0.84718264  1
  H  H248  1  0.50000000  0.74000008  0.02724941  1
  H  H249  1  0.50000000  0.74039979  0.52801964  1
  H  H250  1  0.50000000  0.73969341  0.40256310  1
  H  H251  1  0.50000000  0.74024587  0.90191571  1
  H  H252  1  0.50000000  0.73941102  0.15232235  1
  H  H253  1  0.50000000  0.74021740  0.65279264  1
  H  H254  1  0.50000000  0.73937819  0.27746365  1
  H  H255  1  0.50000000  0.74013063  0.77718014  1
  H  H256  1  0.50000000  0.48729358  0.10279232  1
  H  H257  1  0.50000000  0.49055800  0.46189578  1
  H  H258  1  0.50000000  0.48625612  0.22410147  1
  H  H259  1  0.50000000  0.48678165  0.34580930  1
  H  H260  1  0.50000000  0.50550726  0.00490385  1
  H  H261  1  0.50000000  0.49065738  0.03796558  1
  H  H262  1  0.50000000  0.48719151  0.39707234  1
  H  H263  1  0.50000000  0.48689523  0.15427242  1
  H  H264  1  0.50000000  0.48628604  0.27606464  1
  H  H265  1  0.50000000  0.53991686  0.08905940  1
  H  H266  1  0.50000000  0.54122220  0.46554066  1
  H  H267  1  0.50000000  0.53971899  0.21490908  1
  H  H268  1  0.50000000  0.53985822  0.34080873  1
  H  H269  1  0.50000000  0.50552020  0.49481456  1
  H  H270  1  0.50000000  0.54117709  0.03422930  1
  H  H271  1  0.50000000  0.53996693  0.41064641  1
  H  H272  1  0.50000000  0.53984689  0.15917428  1
  H  H273  1  0.50000000  0.53975841  0.28494975  1
