# generated using pymatgen
data_H17C112
_symmetry_space_group_name_H-M   'P 1'
_cell_length_a   20.00000000
_cell_length_b   40.19450000
_cell_length_c   34.44739281
_cell_angle_alpha   90.00000000
_cell_angle_beta   90.00000000
_cell_angle_gamma   90.00000000
_symmetry_Int_Tables_number   1
_chemical_formula_structural   H17C112
_chemical_formula_sum   'H34 C224'
_cell_volume   27691.91460659
_cell_formula_units_Z   2
loop_
 _symmetry_equiv_pos_site_id
 _symmetry_equiv_pos_as_xyz
  1  'x, y, z'
loop_
 _atom_site_type_symbol
 _atom_site_label
 _atom_site_symmetry_multiplicity
 _atom_site_fract_x
 _atom_site_fract_y
 _atom_site_fract_z
 _atom_site_occupancy
  C  C0  1  0.50000000  0.28538339  0.08221620  1
  C  C1  1  0.50000000  0.28576620  0.58254171  1
  C  C2  1  0.50000000  0.28546467  0.45757282  1
  C  C3  1  0.50000000  0.28567209  0.95728630  1
  C  C4  1  0.50000000  0.28520791  0.20729980  1
  C  C5  1  0.50000000  0.28589072  0.70747104  1
  C  C6  1  0.50000000  0.28522662  0.33244002  1
  C  C7  1  0.50000000  0.28585483  0.83239836  1
  C  C8  1  0.50000000  0.31534668  0.10381760  1
  C  C9  1  0.50000000  0.31580747  0.60402339  1
  C  C10  1  0.50000000  0.31552015  0.47908062  1
  C  C11  1  0.50000000  0.31565858  0.97883880  1
  C  C12  1  0.50000000  0.31518339  0.22890664  1
  C  C13  1  0.50000000  0.31590923  0.72896893  1
  C  C14  1  0.50000000  0.31523906  0.35402505  1
  C  C15  1  0.50000000  0.31585482  0.85391409  1
  C  C16  1  0.50000000  0.28546431  0.04224879  1
  C  C17  1  0.50000000  0.28571314  0.54259508  1
  C  C18  1  0.50000000  0.28539259  0.41761555  1
  C  C19  1  0.50000000  0.28572578  0.91732489  1
  C  C20  1  0.50000000  0.28522166  0.16733084  1
  C  C21  1  0.50000000  0.28585753  0.66751358  1
  C  C22  1  0.50000000  0.28522197  0.29247674  1
  C  C23  1  0.50000000  0.28587901  0.79243892  1
  C  C24  1  0.50000000  0.34604832  0.08313984  1
  C  C25  1  0.50000000  0.34646122  0.58330337  1
  C  C26  1  0.50000000  0.34614835  0.45835495  1
  C  C27  1  0.50000000  0.34638733  0.95820975  1
  C  C28  1  0.50000000  0.34582521  0.20818784  1
  C  C29  1  0.50000000  0.34657527  0.70828377  1
  C  C30  1  0.50000000  0.34585695  0.33328738  1
  C  C31  1  0.50000000  0.34655048  0.83325793  1
  C  C32  1  0.50000000  0.37684223  0.10407781  1
  C  C33  1  0.50000000  0.37737472  0.60418940  1
  C  C34  1  0.50000000  0.37706913  0.47923773  1
  C  C35  1  0.50000000  0.37724533  0.97913581  1
  C  C36  1  0.50000000  0.37659435  0.22916689  1
  C  C37  1  0.50000000  0.37745575  0.72919303  1
  C  C38  1  0.50000000  0.37667937  0.35425231  1
  C  C39  1  0.50000000  0.37741507  0.85419635  1
  C  C40  1  0.50000000  0.31553537  0.02078143  1
  C  C41  1  0.50000000  0.31567488  0.52101645  1
  C  C42  1  0.50000000  0.31533527  0.39598514  1
  C  C43  1  0.50000000  0.31578730  0.89586632  1
  C  C44  1  0.50000000  0.31524707  0.14577590  1
  C  C45  1  0.50000000  0.31585855  0.64598091  1
  C  C46  1  0.50000000  0.31518857  0.27087063  1
  C  C47  1  0.50000000  0.31590284  0.77093303  1
  C  C48  1  0.50000000  0.34616469  0.04148137  1
  C  C49  1  0.50000000  0.34640371  0.54164886  1
  C  C50  1  0.50000000  0.34603147  0.41668458  1
  C  C51  1  0.50000000  0.34644370  0.91656356  1
  C  C52  1  0.50000000  0.34586352  0.16651254  1
  C  C53  1  0.50000000  0.34655132  0.66663525  1
  C  C54  1  0.50000000  0.34582257  0.29160786  1
  C  C55  1  0.50000000  0.34657248  0.79160924  1
  C  C56  1  0.50000000  0.40754768  0.08316875  1
  C  C57  1  0.50000000  0.40807659  0.58329370  1
  C  C58  1  0.50000000  0.40772352  0.45836351  1
  C  C59  1  0.50000000  0.40801821  0.95830258  1
  C  C60  1  0.50000000  0.40722157  0.20822806  1
  C  C61  1  0.50000000  0.40812865  0.70830094  1
  C  C62  1  0.50000000  0.40729134  0.33332792  1
  C  C63  1  0.50000000  0.40813802  0.83336160  1
  C  C64  1  0.50000000  0.43810536  0.10396956  1
  C  C65  1  0.50000000  0.43881841  0.60402117  1
  C  C66  1  0.50000000  0.43847369  0.47916493  1
  C  C67  1  0.50000000  0.43869134  0.97908494  1
  C  C68  1  0.50000000  0.43777511  0.22907711  1
  C  C69  1  0.50000000  0.43878534  0.72911631  1
  C  C70  1  0.50000000  0.43790511  0.35422792  1
  C  C71  1  0.50000000  0.43879578  0.85420899  1
  C  C72  1  0.50000000  0.37707718  0.02059399  1
  C  C73  1  0.50000000  0.37725010  0.52071026  1
  C  C74  1  0.50000000  0.37682851  0.39574467  1
  C  C75  1  0.50000000  0.37736301  0.89567653  1
  C  C76  1  0.50000000  0.37668869  0.14555503  1
  C  C77  1  0.50000000  0.37741104  0.64567699  1
  C  C78  1  0.50000000  0.37659615  0.27064196  1
  C  C79  1  0.50000000  0.37745363  0.77069306  1
  C  C80  1  0.50000000  0.40772647  0.04147100  1
  C  C81  1  0.50000000  0.40801938  0.54155128  1
  C  C82  1  0.50000000  0.40753169  0.41666923  1
  C  C83  1  0.50000000  0.40806999  0.91656190  1
  C  C84  1  0.50000000  0.40729527  0.16649194  1
  C  C85  1  0.50000000  0.40813210  0.66650852  1
  C  C86  1  0.50000000  0.40722035  0.29159181  1
  C  C87  1  0.50000000  0.40813546  0.79157097  1
  C  C88  1  0.50000000  0.46887822  0.08306930  1
  C  C89  1  0.50000000  0.46964925  0.58308604  1
  C  C90  1  0.50000000  0.46919609  0.45828677  1
  C  C91  1  0.50000000  0.46963039  0.95828338  1
  C  C92  1  0.50000000  0.46842626  0.20808527  1
  C  C93  1  0.50000000  0.46955701  0.70815631  1
  C  C94  1  0.50000000  0.46851542  0.33324711  1
  C  C95  1  0.50000000  0.46962698  0.83335580  1
  C  C96  1  0.50000000  0.49943849  0.10402710  1
  C  C97  1  0.50000000  0.50048209  0.60383402  1
  C  C98  1  0.50000000  0.50007218  0.47906345  1
  C  C99  1  0.50000000  0.50043521  0.97913620  1
  C  C100  1  0.50000000  0.49901953  0.22907548  1
  C  C101  1  0.50000000  0.50021955  0.72903593  1
  C  C102  1  0.50000000  0.49918691  0.35413965  1
  C  C103  1  0.50000000  0.50033207  0.85428158  1
  C  C104  1  0.50000000  0.43847037  0.02067501  1
  C  C105  1  0.50000000  0.43868827  0.52076517  1
  C  C106  1  0.50000000  0.43808766  0.39587019  1
  C  C107  1  0.50000000  0.43881530  0.89583544  1
  C  C108  1  0.50000000  0.43791509  0.14560328  1
  C  C109  1  0.50000000  0.43879113  0.64565321  1
  C  C110  1  0.50000000  0.43777148  0.27073798  1
  C  C111  1  0.50000000  0.43878960  0.77076952  1
  C  C112  1  0.50000000  0.46918880  0.04155249  1
  C  C113  1  0.50000000  0.46962976  0.54156086  1
  C  C114  1  0.50000000  0.46885794  0.41677480  1
  C  C115  1  0.50000000  0.46965446  0.91676644  1
  C  C116  1  0.50000000  0.46852793  0.16657229  1
  C  C117  1  0.50000000  0.46961662  0.66653209  1
  C  C118  1  0.50000000  0.46842076  0.29172891  1
  C  C119  1  0.50000000  0.46955974  0.79173361  1
  C  C120  1  0.50000000  0.53012005  0.08326351  1
  C  C121  1  0.50000000  0.53122056  0.58297943  1
  C  C122  1  0.50000000  0.53059668  0.45817216  1
  C  C123  1  0.50000000  0.53138767  0.95849266  1
  C  C124  1  0.50000000  0.52956199  0.20826716  1
  C  C125  1  0.50000000  0.53081552  0.70806909  1
  C  C126  1  0.50000000  0.52962597  0.33316950  1
  C  C127  1  0.50000000  0.53097149  0.83349697  1
  C  C128  1  0.50000000  0.56050710  0.10447099  1
  C  C129  1  0.50000000  0.56216549  0.60373817  1
  C  C130  1  0.50000000  0.56157576  0.47894223  1
  C  C131  1  0.50000000  0.56231271  0.97942658  1
  C  C132  1  0.50000000  0.56009208  0.22929427  1
  C  C133  1  0.50000000  0.56147504  0.72911700  1
  C  C134  1  0.50000000  0.56029137  0.35388869  1
  C  C135  1  0.50000000  0.56179197  0.85446572  1
  C  C136  1  0.50000000  0.50005360  0.02077039  1
  C  C137  1  0.50000000  0.50043268  0.52070806  1
  C  C138  1  0.50000000  0.49940753  0.39579498  1
  C  C139  1  0.50000000  0.50049184  0.89602925  1
  C  C140  1  0.50000000  0.49920368  0.14568092  1
  C  C141  1  0.50000000  0.50032354  0.64559293  1
  C  C142  1  0.50000000  0.49901541  0.27073620  1
  C  C143  1  0.50000000  0.50022210  0.77085997  1
  C  C144  1  0.50000000  0.53058558  0.04164278  1
  C  C145  1  0.50000000  0.53137668  0.54135761  1
  C  C146  1  0.50000000  0.53009480  0.41652723  1
  C  C147  1  0.50000000  0.53124051  0.91687793  1
  C  C148  1  0.50000000  0.52964149  0.16664595  1
  C  C149  1  0.50000000  0.53095683  0.66639316  1
  C  C150  1  0.50000000  0.52955240  0.29154972  1
  C  C151  1  0.50000000  0.53082313  0.79182483  1
  C  C152  1  0.50000000  0.59135706  0.08390786  1
  C  C153  1  0.50000000  0.59306842  0.58301438  1
  C  C154  1  0.50000000  0.59213039  0.45777333  1
  C  C155  1  0.50000000  0.59375074  0.95890510  1
  C  C156  1  0.50000000  0.59086586  0.20868141  1
  C  C157  1  0.50000000  0.59204840  0.70827778  1
  C  C158  1  0.50000000  0.59078033  0.33250356  1
  C  C159  1  0.50000000  0.59230513  0.83343098  1
  C  C160  1  0.50000000  0.62121620  0.10577333  1
  C  C161  1  0.50000000  0.62352351  0.60427838  1
  C  C162  1  0.50000000  0.62329455  0.47809335  1
  C  C163  1  0.50000000  0.62467444  0.97970445  1
  C  C164  1  0.50000000  0.62154384  0.22911822  1
  C  C165  1  0.50000000  0.62247852  0.72926627  1
  C  C166  1  0.50000000  0.62135803  0.35266990  1
  C  C167  1  0.50000000  0.62299568  0.85405363  1
  C  C168  1  0.50000000  0.56155327  0.02091748  1
  C  C169  1  0.50000000  0.56230510  0.52043214  1
  C  C170  1  0.50000000  0.56049550  0.39534159  1
  C  C171  1  0.50000000  0.56218986  0.89612654  1
  C  C172  1  0.50000000  0.56029839  0.14591927  1
  C  C173  1  0.50000000  0.56177059  0.64540620  1
  C  C174  1  0.50000000  0.56008533  0.27051948  1
  C  C175  1  0.50000000  0.56148523  0.77077449  1
  C  C176  1  0.50000000  0.59211018  0.04206389  1
  C  C177  1  0.50000000  0.59373497  0.54095361  1
  C  C178  1  0.50000000  0.59134439  0.41593966  1
  C  C179  1  0.50000000  0.59309793  0.91684838  1
  C  C180  1  0.50000000  0.59078854  0.16729890  1
  C  C181  1  0.50000000  0.59227364  0.66645675  1
  C  C182  1  0.50000000  0.59086111  0.29111948  1
  C  C183  1  0.50000000  0.59206172  0.79160970  1
  C  C184  1  0.50000000  0.65128558  0.08545714  1
  C  C185  1  0.50000000  0.65479869  0.58403633  1
  C  C186  1  0.50000000  0.65182463  0.45379500  1
  C  C187  1  0.50000000  0.65611021  0.95758939  1
  C  C188  1  0.50000000  0.65172451  0.20795393  1
  C  C189  1  0.50000000  0.65329359  0.70862878  1
  C  C190  1  0.50000000  0.65159208  0.33158348  1
  C  C191  1  0.50000000  0.65355453  0.83259642  1
  C  C192  1  0.50000000  0.68511921  0.60590878  1
  C  C193  1  0.50000000  0.68869464  0.97337864  1
  C  C194  1  0.50000000  0.68381345  0.72917049  1
  C  C195  1  0.50000000  0.68436064  0.85226684  1
  C  C196  1  0.50000000  0.62327571  0.02174669  1
  C  C197  1  0.50000000  0.62466569  0.52015492  1
  C  C198  1  0.50000000  0.62120117  0.39404476  1
  C  C199  1  0.50000000  0.62357410  0.89560692  1
  C  C200  1  0.50000000  0.62136431  0.14714263  1
  C  C201  1  0.50000000  0.62295336  0.64582842  1
  C  C202  1  0.50000000  0.62153426  0.27066107  1
  C  C203  1  0.50000000  0.62249141  0.77061535  1
  C  C204  1  0.50000000  0.65181327  0.04602127  1
  C  C205  1  0.50000000  0.65607187  0.54229865  1
  C  C206  1  0.50000000  0.65127012  0.41434695  1
  C  C207  1  0.50000000  0.65486957  0.91584185  1
  C  C208  1  0.50000000  0.65162252  0.16821723  1
  C  C209  1  0.50000000  0.65351100  0.66727240  1
  C  C210  1  0.50000000  0.65168734  0.29185125  1
  C  C211  1  0.50000000  0.65331436  0.79123730  1
  C  C212  1  0.50000000  0.71627968  0.58770233  1
  C  C213  1  0.50000000  0.71783464  0.95196126  1
  C  C214  1  0.50000000  0.71404227  0.70859097  1
  C  C215  1  0.50000000  0.71427301  0.83088306  1
  C  C216  1  0.50000000  0.68863576  0.52650515  1
  C  C217  1  0.50000000  0.68519025  0.89394349  1
  C  C218  1  0.50000000  0.68429783  0.64757518  1
  C  C219  1  0.50000000  0.68382156  0.77066190  1
  C  C220  1  0.50000000  0.71780618  0.54789462  1
  C  C221  1  0.50000000  0.71634382  0.91216055  1
  C  C222  1  0.50000000  0.71422073  0.66890124  1
  C  C223  1  0.50000000  0.71406799  0.79118958  1
  H  H224  1  0.50000000  0.26146955  0.09731688  1
  H  H225  1  0.50000000  0.26177695  0.59746695  1
  H  H226  1  0.50000000  0.26143971  0.47242817  1
  H  H227  1  0.50000000  0.26172498  0.97232903  1
  H  H228  1  0.50000000  0.26126648  0.22231198  1
  H  H229  1  0.50000000  0.26191516  0.72243692  1
  H  H230  1  0.50000000  0.26124159  0.34736778  1
  H  H231  1  0.50000000  0.26190102  0.84742527  1
  H  H232  1  0.50000000  0.26155542  0.02712944  1
  H  H233  1  0.50000000  0.26173358  0.52764462  1
  H  H234  1  0.50000000  0.26139260  0.40272092  1
  H  H235  1  0.50000000  0.26177947  0.90228615  1
  H  H236  1  0.50000000  0.26126631  0.15231893  1
  H  H237  1  0.50000000  0.26186083  0.65259089  1
  H  H238  1  0.50000000  0.26127132  0.27749017  1
  H  H239  1  0.50000000  0.26189749  0.77748313  1
  H  H240  1  0.50000000  0.73922374  0.60443843  1
  H  H241  1  0.50000000  0.74180696  0.96707204  1
  H  H242  1  0.50000000  0.73790215  0.72365951  1
  H  H243  1  0.50000000  0.73838149  0.84531897  1
  H  H244  1  0.50000000  0.74173141  0.53266234  1
  H  H245  1  0.50000000  0.73938280  0.89560328  1
  H  H246  1  0.50000000  0.73830563  0.65440246  1
  H  H247  1  0.50000000  0.73787148  0.77597209  1
  H  H248  1  0.50000000  0.67516493  0.10051758  1
  H  H249  1  0.50000000  0.67663152  0.46457203  1
  H  H250  1  0.50000000  0.67562716  0.22303994  1
  H  H251  1  0.50000000  0.67549864  0.34658004  1
  H  H252  1  0.50000000  0.69418183  0.00372235  1
  H  H253  1  0.50000000  0.67655396  0.03504290  1
  H  H254  1  0.50000000  0.67516206  0.39932625  1
  H  H255  1  0.50000000  0.67545526  0.15303083  1
  H  H256  1  0.50000000  0.67564662  0.27690908  1
  H  H257  1  0.50000000  0.69402836  0.49615800  1
