# generated using pymatgen
data_H25C112
_symmetry_space_group_name_H-M   'P 1'
_cell_length_a   20.00000000
_cell_length_b   40.19450000
_cell_length_c   34.50301630
_cell_angle_alpha   90.00000000
_cell_angle_beta   90.00000000
_cell_angle_gamma   90.00000000
_symmetry_Int_Tables_number   1
_chemical_formula_structural   H25C112
_chemical_formula_sum   'H50 C224'
_cell_volume   27736.62976998
_cell_formula_units_Z   2
loop_
 _symmetry_equiv_pos_site_id
 _symmetry_equiv_pos_as_xyz
  1  'x, y, z'
loop_
 _atom_site_type_symbol
 _atom_site_label
 _atom_site_symmetry_multiplicity
 _atom_site_fract_x
 _atom_site_fract_y
 _atom_site_fract_z
 _atom_site_occupancy
  C  C0  1  0.50000000  0.28361815  0.08064677  1
  C  C1  1  0.50000000  0.28604857  0.58366255  1
  C  C2  1  0.50000000  0.28441124  0.45918671  1
  C  C3  1  0.50000000  0.28577295  0.95608386  1
  C  C4  1  0.50000000  0.28215519  0.20656221  1
  C  C5  1  0.50000000  0.28663808  0.70781485  1
  C  C6  1  0.50000000  0.28242787  0.33326401  1
  C  C7  1  0.50000000  0.28663466  0.83203007  1
  C  C8  1  0.50000000  0.31316072  0.10281696  1
  C  C9  1  0.50000000  0.31622154  0.60459082  1
  C  C10  1  0.50000000  0.31466220  0.48009261  1
  C  C11  1  0.50000000  0.31549775  0.97785368  1
  C  C12  1  0.50000000  0.31180233  0.22869257  1
  C  C13  1  0.50000000  0.31665715  0.72903921  1
  C  C14  1  0.50000000  0.31243097  0.35476792  1
  C  C15  1  0.50000000  0.31656215  0.85341305  1
  C  C16  1  0.50000000  0.28443456  0.04065361  1
  C  C17  1  0.50000000  0.28565022  0.54376969  1
  C  C18  1  0.50000000  0.28357378  0.41918963  1
  C  C19  1  0.50000000  0.28621856  0.91620357  1
  C  C20  1  0.50000000  0.28248467  0.16644834  1
  C  C21  1  0.50000000  0.28652955  0.66792115  1
  C  C22  1  0.50000000  0.28211787  0.29312597  1
  C  C23  1  0.50000000  0.28667095  0.79211894  1
  C  C24  1  0.50000000  0.34405023  0.08249514  1
  C  C25  1  0.50000000  0.34675388  0.58376500  1
  C  C26  1  0.50000000  0.34494606  0.45898234  1
  C  C27  1  0.50000000  0.34645611  0.95762933  1
  C  C28  1  0.50000000  0.34246991  0.20797156  1
  C  C29  1  0.50000000  0.34728845  0.70838264  1
  C  C30  1  0.50000000  0.34279517  0.33360334  1
  C  C31  1  0.50000000  0.34730598  0.83303503  1
  C  C32  1  0.50000000  0.37451882  0.10383196  1
  C  C33  1  0.50000000  0.37783529  0.60431324  1
  C  C34  1  0.50000000  0.37613478  0.47959868  1
  C  C35  1  0.50000000  0.37717136  0.97877812  1
  C  C36  1  0.50000000  0.37315936  0.22910733  1
  C  C37  1  0.50000000  0.37817595  0.72918545  1
  C  C38  1  0.50000000  0.37378169  0.35442496  1
  C  C39  1  0.50000000  0.37809768  0.85405643  1
  C  C40  1  0.50000000  0.31472150  0.01978112  1
  C  C41  1  0.50000000  0.31538940  0.52203974  1
  C  C42  1  0.50000000  0.31308143  0.39694176  1
  C  C43  1  0.50000000  0.31637358  0.89526802  1
  C  C44  1  0.50000000  0.31248904  0.14498776  1
  C  C45  1  0.50000000  0.31643131  0.64646139  1
  C  C46  1  0.50000000  0.31179631  0.27105172  1
  C  C47  1  0.50000000  0.31669338  0.77088593  1
  C  C48  1  0.50000000  0.34501097  0.04088051  1
  C  C49  1  0.50000000  0.34633231  0.54225754  1
  C  C50  1  0.50000000  0.34397750  0.41732355  1
  C  C51  1  0.50000000  0.34689257  0.91613789  1
  C  C52  1  0.50000000  0.34283958  0.16617449  1
  C  C53  1  0.50000000  0.34718416  0.66684955  1
  C  C54  1  0.50000000  0.34244751  0.29179762  1
  C  C55  1  0.50000000  0.34736769  0.79150807  1
  C  C56  1  0.50000000  0.40530895  0.08325719  1
  C  C57  1  0.50000000  0.40833501  0.58331523  1
  C  C58  1  0.50000000  0.40637727  0.45844709  1
  C  C59  1  0.50000000  0.40816237  0.95834763  1
  C  C60  1  0.50000000  0.40374195  0.20834036  1
  C  C61  1  0.50000000  0.40873381  0.70826676  1
  C  C62  1  0.50000000  0.40405229  0.33328031  1
  C  C63  1  0.50000000  0.40874502  0.83337523  1
  C  C64  1  0.50000000  0.43543878  0.10446614  1
  C  C65  1  0.50000000  0.43924762  0.60386853  1
  C  C66  1  0.50000000  0.43740126  0.47893862  1
  C  C67  1  0.50000000  0.43873252  0.97940232  1
  C  C68  1  0.50000000  0.43412809  0.22930384  1
  C  C69  1  0.50000000  0.43935607  0.72911082  1
  C  C70  1  0.50000000  0.43472425  0.35386181  1
  C  C71  1  0.50000000  0.43938835  0.85430299  1
  C  C72  1  0.50000000  0.37623312  0.02024039  1
  C  C73  1  0.50000000  0.37703872  0.52108301  1
  C  C74  1  0.50000000  0.37444238  0.39597891  1
  C  C75  1  0.50000000  0.37795726  0.89557029  1
  C  C76  1  0.50000000  0.37383631  0.14537056  1
  C  C77  1  0.50000000  0.37798747  0.64583929  1
  C  C78  1  0.50000000  0.37315140  0.27069534  1
  C  C79  1  0.50000000  0.37822795  0.77068465  1
  C  C80  1  0.50000000  0.40647769  0.04139738  1
  C  C81  1  0.50000000  0.40803252  0.54152197  1
  C  C82  1  0.50000000  0.40521237  0.41657580  1
  C  C83  1  0.50000000  0.40847660  0.91654175  1
  C  C84  1  0.50000000  0.40411839  0.16650709  1
  C  C85  1  0.50000000  0.40865356  0.66649508  1
  C  C86  1  0.50000000  0.40370999  0.29146172  1
  C  C87  1  0.50000000  0.40878502  0.79159426  1
  C  C88  1  0.50000000  0.46648891  0.08404790  1
  C  C89  1  0.50000000  0.47010849  0.58298782  1
  C  C90  1  0.50000000  0.46785901  0.45763278  1
  C  C91  1  0.50000000  0.47025845  0.95892289  1
  C  C92  1  0.50000000  0.46499332  0.20882090  1
  C  C93  1  0.50000000  0.47003805  0.70814557  1
  C  C94  1  0.50000000  0.46508401  0.33232856  1
  C  C95  1  0.50000000  0.47004150  0.83325151  1
  C  C96  1  0.50000000  0.49600972  0.10630572  1
  C  C97  1  0.50000000  0.50063263  0.60427526  1
  C  C98  1  0.50000000  0.49922844  0.47764629  1
  C  C99  1  0.50000000  0.50098157  0.97983724  1
  C  C100  1  0.50000000  0.49557568  0.22921469  1
  C  C101  1  0.50000000  0.50064559  0.72904381  1
  C  C102  1  0.50000000  0.49567720  0.35225924  1
  C  C103  1  0.50000000  0.50071177  0.85386321  1
  C  C104  1  0.50000000  0.43751694  0.02093650  1
  C  C105  1  0.50000000  0.43861633  0.52047605  1
  C  C106  1  0.50000000  0.43534370  0.39538777  1
  C  C107  1  0.50000000  0.43936818  0.89597194  1
  C  C108  1  0.50000000  0.43480537  0.14598901  1
  C  C109  1  0.50000000  0.43928547  0.64554215  1
  C  C110  1  0.50000000  0.43410558  0.27053582  1
  C  C111  1  0.50000000  0.43938407  0.77070896  1
  C  C112  1  0.50000000  0.46797823  0.04227204  1
  C  C113  1  0.50000000  0.47013893  0.54097310  1
  C  C114  1  0.50000000  0.46637814  0.41583951  1
  C  C115  1  0.50000000  0.47020772  0.91688156  1
  C  C116  1  0.50000000  0.46516375  0.16756859  1
  C  C117  1  0.50000000  0.46998644  0.66653398  1
  C  C118  1  0.50000000  0.46495202  0.29106835  1
  C  C119  1  0.50000000  0.47007213  0.79163690  1
  C  C120  1  0.50000000  0.52619718  0.08663251  1
  C  C121  1  0.50000000  0.53155986  0.58392984  1
  C  C122  1  0.50000000  0.52728541  0.45284390  1
  C  C123  1  0.50000000  0.53189864  0.95745556  1
  C  C124  1  0.50000000  0.52576383  0.20847353  1
  C  C125  1  0.50000000  0.53139339  0.70833217  1
  C  C126  1  0.50000000  0.52573208  0.33120565  1
  C  C127  1  0.50000000  0.53139583  0.83285098  1
  C  C128  1  0.50000000  0.56245673  0.60501882  1
  C  C129  1  0.50000000  0.56389849  0.97402863  1
  C  C130  1  0.50000000  0.56220675  0.72912438  1
  C  C131  1  0.50000000  0.56233369  0.85328617  1
  C  C132  1  0.50000000  0.49937793  0.02231179  1
  C  C133  1  0.50000000  0.50086894  0.52007417  1
  C  C134  1  0.50000000  0.49590782  0.39366456  1
  C  C135  1  0.50000000  0.50068559  0.89551821  1
  C  C136  1  0.50000000  0.49580255  0.14774144  1
  C  C137  1  0.50000000  0.50066597  0.64592329  1
  C  C138  1  0.50000000  0.49555280  0.27071818  1
  C  C139  1  0.50000000  0.50065980  0.77071044  1
  C  C140  1  0.50000000  0.52744377  0.04716326  1
  C  C141  1  0.50000000  0.53186064  0.54232452  1
  C  C142  1  0.50000000  0.52607835  0.41338925  1
  C  C143  1  0.50000000  0.53158965  0.91584758  1
  C  C144  1  0.50000000  0.52585629  0.16879670  1
  C  C145  1  0.50000000  0.53136904  0.66690718  1
  C  C146  1  0.50000000  0.52569223  0.29153859  1
  C  C147  1  0.50000000  0.53141681  0.79140925  1
  C  C148  1  0.50000000  0.59382196  0.58552727  1
  C  C149  1  0.50000000  0.59406289  0.95518314  1
  C  C150  1  0.50000000  0.59298420  0.70855800  1
  C  C151  1  0.50000000  0.59306051  0.83258881  1
  C  C152  1  0.50000000  0.62592694  0.10377672  1
  C  C153  1  0.50000000  0.62453773  0.60578982  1
  C  C154  1  0.50000000  0.62623080  0.48190237  1
  C  C155  1  0.50000000  0.62520817  0.97743733  1
  C  C156  1  0.50000000  0.62575330  0.22995906  1
  C  C157  1  0.50000000  0.62378615  0.72924966  1
  C  C158  1  0.50000000  0.62593095  0.35602912  1
  C  C159  1  0.50000000  0.62414731  0.85296417  1
  C  C160  1  0.50000000  0.56386141  0.52567692  1
  C  C161  1  0.50000000  0.56248896  0.89473527  1
  C  C162  1  0.50000000  0.56231566  0.64646755  1
  C  C163  1  0.50000000  0.56221590  0.77058062  1
  C  C164  1  0.50000000  0.59404033  0.54452517  1
  C  C165  1  0.50000000  0.59385214  0.91419095  1
  C  C166  1  0.50000000  0.59305487  0.66712369  1
  C  C167  1  0.50000000  0.59299348  0.79113802  1
  C  C168  1  0.50000000  0.65593523  0.08186979  1
  C  C169  1  0.50000000  0.65552121  0.58464455  1
  C  C170  1  0.50000000  0.65605246  0.46008816  1
  C  C171  1  0.50000000  0.65596194  0.95660061  1
  C  C172  1  0.50000000  0.65574424  0.20787367  1
  C  C173  1  0.50000000  0.65480370  0.70865717  1
  C  C174  1  0.50000000  0.65588961  0.33398522  1
  C  C175  1  0.50000000  0.65497119  0.83230595  1
  C  C176  1  0.50000000  0.68651521  0.10279008  1
  C  C177  1  0.50000000  0.68599579  0.60511808  1
  C  C178  1  0.50000000  0.68688186  0.48055945  1
  C  C179  1  0.50000000  0.68666054  0.97740368  1
  C  C180  1  0.50000000  0.68634792  0.22876623  1
  C  C181  1  0.50000000  0.68548755  0.72903965  1
  C  C182  1  0.50000000  0.68654444  0.35482057  1
  C  C183  1  0.50000000  0.68569281  0.85286445  1
  C  C184  1  0.50000000  0.62620867  0.01780827  1
  C  C185  1  0.50000000  0.62520069  0.52226833  1
  C  C186  1  0.50000000  0.62598122  0.39590396  1
  C  C187  1  0.50000000  0.62454134  0.89390639  1
  C  C188  1  0.50000000  0.62586795  0.14365865  1
  C  C189  1  0.50000000  0.62412771  0.64672825  1
  C  C190  1  0.50000000  0.62578507  0.26984825  1
  C  C191  1  0.50000000  0.62378622  0.77040980  1
  C  C192  1  0.50000000  0.65602004  0.03963008  1
  C  C193  1  0.50000000  0.65595620  0.54310333  1
  C  C194  1  0.50000000  0.65598483  0.41783866  1
  C  C195  1  0.50000000  0.65554191  0.91505961  1
  C  C196  1  0.50000000  0.65581368  0.16572997  1
  C  C197  1  0.50000000  0.65497240  0.66734399  1
  C  C198  1  0.50000000  0.65580774  0.29184789  1
  C  C199  1  0.50000000  0.65480470  0.79099045  1
  C  C200  1  0.50000000  0.71670463  0.08099785  1
  C  C201  1  0.50000000  0.71629960  0.58385250  1
  C  C202  1  0.50000000  0.71690179  0.45859232  1
  C  C203  1  0.50000000  0.71668240  0.95561226  1
  C  C204  1  0.50000000  0.71638228  0.20678166  1
  C  C205  1  0.50000000  0.71558394  0.70784888  1
  C  C206  1  0.50000000  0.71654216  0.33272781  1
  C  C207  1  0.50000000  0.71572378  0.83156334  1
  C  C208  1  0.50000000  0.68685743  0.01918048  1
  C  C209  1  0.50000000  0.68668007  0.52233134  1
  C  C210  1  0.50000000  0.68658516  0.39692361  1
  C  C211  1  0.50000000  0.68600656  0.89455472  1
  C  C212  1  0.50000000  0.68646173  0.14488049  1
  C  C213  1  0.50000000  0.68570103  0.64679375  1
  C  C214  1  0.50000000  0.68637810  0.27089919  1
  C  C215  1  0.50000000  0.68548863  0.77061821  1
  C  C216  1  0.50000000  0.71686578  0.04115330  1
  C  C217  1  0.50000000  0.71672188  0.54409925  1
  C  C218  1  0.50000000  0.71677188  0.41873859  1
  C  C219  1  0.50000000  0.71628899  0.91586315  1
  C  C220  1  0.50000000  0.71647778  0.16690623  1
  C  C221  1  0.50000000  0.71571771  0.66810990  1
  C  C222  1  0.50000000  0.71643360  0.29284064  1
  C  C223  1  0.50000000  0.71559337  0.79180025  1
  H  H224  1  0.50000000  0.25943586  0.09515190  1
  H  H225  1  0.50000000  0.26230981  0.59909019  1
  H  H226  1  0.50000000  0.26076557  0.47475176  1
  H  H227  1  0.50000000  0.26158865  0.97054780  1
  H  H228  1  0.50000000  0.25794380  0.22098493  1
  H  H229  1  0.50000000  0.26270518  0.72282970  1
  H  H230  1  0.50000000  0.25849714  0.34835815  1
  H  H231  1  0.50000000  0.26266887  0.84696725  1
  H  H232  1  0.50000000  0.26080687  0.02504759  1
  H  H233  1  0.50000000  0.26159025  0.52901265  1
  H  H234  1  0.50000000  0.25929223  0.40490440  1
  H  H235  1  0.50000000  0.26247487  0.90083086  1
  H  H236  1  0.50000000  0.25853392  0.15142718  1
  H  H237  1  0.50000000  0.26246335  0.65321193  1
  H  H238  1  0.50000000  0.25798583  0.27848076  1
  H  H239  1  0.50000000  0.26276014  0.77703499  1
  H  H240  1  0.50000000  0.74070210  0.09591224  1
  H  H241  1  0.50000000  0.74004941  0.59921931  1
  H  H242  1  0.50000000  0.74100154  0.47336406  1
  H  H243  1  0.50000000  0.74073842  0.97040856  1
  H  H244  1  0.50000000  0.74037659  0.22169388  1
  H  H245  1  0.50000000  0.73942759  0.72294855  1
  H  H246  1  0.50000000  0.74066243  0.34740568  1
  H  H247  1  0.50000000  0.73960318  0.84662378  1
  H  H248  1  0.50000000  0.74096103  0.02637657  1
  H  H249  1  0.50000000  0.74078267  0.52927730  1
  H  H250  1  0.50000000  0.74078676  0.40381965  1
  H  H251  1  0.50000000  0.74007620  0.90057024  1
  H  H252  1  0.50000000  0.74057249  0.15216309  1
  H  H253  1  0.50000000  0.73967741  0.65322036  1
  H  H254  1  0.50000000  0.74041745  0.27787846  1
  H  H255  1  0.50000000  0.73936306  0.77653708  1
  H  H256  1  0.50000000  0.54970528  0.10233141  1
  H  H257  1  0.50000000  0.55245270  0.46258179  1
  H  H258  1  0.50000000  0.54942829  0.22387238  1
  H  H259  1  0.50000000  0.54950853  0.34627618  1
  H  H260  1  0.50000000  0.56704455  0.00448246  1
  H  H261  1  0.50000000  0.55263076  0.03744645  1
  H  H262  1  0.50000000  0.54969629  0.39793808  1
  H  H263  1  0.50000000  0.54962868  0.15370073  1
  H  H264  1  0.50000000  0.54945649  0.27639282  1
  H  H265  1  0.50000000  0.60200135  0.08875162  1
  H  H266  1  0.50000000  0.60298242  0.46568643  1
  H  H267  1  0.50000000  0.60181761  0.21496031  1
  H  H268  1  0.50000000  0.60201095  0.34101973  1
  H  H269  1  0.50000000  0.56708628  0.49521339  1
  H  H270  1  0.50000000  0.60298008  0.03407098  1
  H  H271  1  0.50000000  0.60201651  0.41084112  1
  H  H272  1  0.50000000  0.60195884  0.15868601  1
  H  H273  1  0.50000000  0.60190355  0.28497284  1
