# generated using pymatgen
data_H25C112
_symmetry_space_group_name_H-M   'P 1'
_cell_length_a   20.00000000
_cell_length_b   40.19450000
_cell_length_c   34.52860370
_cell_angle_alpha   90.00000000
_cell_angle_beta   90.00000000
_cell_angle_gamma   90.00000000
_symmetry_Int_Tables_number   1
_chemical_formula_structural   H25C112
_chemical_formula_sum   'H50 C224'
_cell_volume   27757.19922457
_cell_formula_units_Z   2
loop_
 _symmetry_equiv_pos_site_id
 _symmetry_equiv_pos_as_xyz
  1  'x, y, z'
loop_
 _atom_site_type_symbol
 _atom_site_label
 _atom_site_symmetry_multiplicity
 _atom_site_fract_x
 _atom_site_fract_y
 _atom_site_fract_z
 _atom_site_occupancy
  C  C0  1  0.50000000  0.28406228  0.08123556  1
  C  C1  1  0.50000000  0.28543258  0.58321346  1
  C  C2  1  0.50000000  0.28435492  0.45848406  1
  C  C3  1  0.50000000  0.28528364  0.95643220  1
  C  C4  1  0.50000000  0.28312730  0.20691782  1
  C  C5  1  0.50000000  0.28587103  0.70773140  1
  C  C6  1  0.50000000  0.28321470  0.33284160  1
  C  C7  1  0.50000000  0.28585267  0.83213282  1
  C  C8  1  0.50000000  0.31373839  0.10327767  1
  C  C9  1  0.50000000  0.31553447  0.60446447  1
  C  C10  1  0.50000000  0.31449354  0.47973748  1
  C  C11  1  0.50000000  0.31510532  0.97816825  1
  C  C12  1  0.50000000  0.31289966  0.22884899  1
  C  C13  1  0.50000000  0.31592175  0.72907946  1
  C  C14  1  0.50000000  0.31320302  0.35447683  1
  C  C15  1  0.50000000  0.31579688  0.85363500  1
  C  C16  1  0.50000000  0.28452486  0.04129247  1
  C  C17  1  0.50000000  0.28523337  0.54333803  1
  C  C18  1  0.50000000  0.28394641  0.41853541  1
  C  C19  1  0.50000000  0.28549847  0.91656146  1
  C  C20  1  0.50000000  0.28331398  0.16691783  1
  C  C21  1  0.50000000  0.28581384  0.66790036  1
  C  C22  1  0.50000000  0.28307911  0.29282673  1
  C  C23  1  0.50000000  0.28590166  0.79228629  1
  C  C24  1  0.50000000  0.34454805  0.08270361  1
  C  C25  1  0.50000000  0.34611504  0.58366243  1
  C  C26  1  0.50000000  0.34494884  0.45877553  1
  C  C27  1  0.50000000  0.34595325  0.95779711  1
  C  C28  1  0.50000000  0.34358166  0.20809851  1
  C  C29  1  0.50000000  0.34653311  0.70836817  1
  C  C30  1  0.50000000  0.34372276  0.33350536  1
  C  C31  1  0.50000000  0.34653296  0.83310393  1
  C  C32  1  0.50000000  0.37513892  0.10383294  1
  C  C33  1  0.50000000  0.37708615  0.60437334  1
  C  C34  1  0.50000000  0.37599954  0.47956535  1
  C  C35  1  0.50000000  0.37669164  0.97884653  1
  C  C36  1  0.50000000  0.37427716  0.22912658  1
  C  C37  1  0.50000000  0.37740709  0.72921764  1
  C  C38  1  0.50000000  0.37459247  0.35448119  1
  C  C39  1  0.50000000  0.37732510  0.85409063  1
  C  C40  1  0.50000000  0.31466497  0.02005117  1
  C  C41  1  0.50000000  0.31503635  0.52163148  1
  C  C42  1  0.50000000  0.31363517  0.39652142  1
  C  C43  1  0.50000000  0.31562344  0.89539532  1
  C  C44  1  0.50000000  0.31330723  0.14532199  1
  C  C45  1  0.50000000  0.31572454  0.64631113  1
  C  C46  1  0.50000000  0.31287953  0.27094356  1
  C  C47  1  0.50000000  0.31593684  0.77091415  1
  C  C48  1  0.50000000  0.34510201  0.04105516  1
  C  C49  1  0.50000000  0.34587029  0.54208089  1
  C  C50  1  0.50000000  0.34443208  0.41711304  1
  C  C51  1  0.50000000  0.34620534  0.91623659  1
  C  C52  1  0.50000000  0.34380727  0.16632607  1
  C  C53  1  0.50000000  0.34646910  0.66681707  1
  C  C54  1  0.50000000  0.34353376  0.29173255  1
  C  C55  1  0.50000000  0.34658827  0.79157378  1
  C  C56  1  0.50000000  0.40590068  0.08305809  1
  C  C57  1  0.50000000  0.40769214  0.58338198  1
  C  C58  1  0.50000000  0.40644236  0.45851534  1
  C  C59  1  0.50000000  0.40755753  0.95817792  1
  C  C60  1  0.50000000  0.40485306  0.20814115  1
  C  C61  1  0.50000000  0.40803570  0.70831084  1
  C  C62  1  0.50000000  0.40504018  0.33344981  1
  C  C63  1  0.50000000  0.40804997  0.83330982  1
  C  C64  1  0.50000000  0.43631165  0.10407289  1
  C  C65  1  0.50000000  0.43853713  0.60404037  1
  C  C66  1  0.50000000  0.43736192  0.47923985  1
  C  C67  1  0.50000000  0.43822436  0.97905810  1
  C  C68  1  0.50000000  0.43537224  0.22913698  1
  C  C69  1  0.50000000  0.43870554  0.72911086  1
  C  C70  1  0.50000000  0.43573358  0.35423574  1
  C  C71  1  0.50000000  0.43867512  0.85422138  1
  C  C72  1  0.50000000  0.37615475  0.02029356  1
  C  C73  1  0.50000000  0.37658284  0.52102646  1
  C  C74  1  0.50000000  0.37503369  0.39599555  1
  C  C75  1  0.50000000  0.37717487  0.89553242  1
  C  C76  1  0.50000000  0.37467640  0.14535155  1
  C  C77  1  0.50000000  0.37725664  0.64582492  1
  C  C78  1  0.50000000  0.37425565  0.27072283  1
  C  C79  1  0.50000000  0.37743687  0.77069131  1
  C  C80  1  0.50000000  0.40660271  0.04135046  1
  C  C81  1  0.50000000  0.40743756  0.54171424  1
  C  C82  1  0.50000000  0.40576787  0.41681095  1
  C  C83  1  0.50000000  0.40779558  0.91650599  1
  C  C84  1  0.50000000  0.40510231  0.16641684  1
  C  C85  1  0.50000000  0.40799092  0.66659361  1
  C  C86  1  0.50000000  0.40481899  0.29174302  1
  C  C87  1  0.50000000  0.40807269  0.79158638  1
  C  C88  1  0.50000000  0.46715968  0.08327904  1
  C  C89  1  0.50000000  0.46930490  0.58307581  1
  C  C90  1  0.50000000  0.46787722  0.45822961  1
  C  C91  1  0.50000000  0.46931885  0.95838979  1
  C  C92  1  0.50000000  0.46598059  0.20828128  1
  C  C93  1  0.50000000  0.46941343  0.70812809  1
  C  C94  1  0.50000000  0.46617010  0.33319387  1
  C  C95  1  0.50000000  0.46946433  0.83336110  1
  C  C96  1  0.50000000  0.49739152  0.10450108  1
  C  C97  1  0.50000000  0.50026870  0.60373065  1
  C  C98  1  0.50000000  0.49888428  0.47889699  1
  C  C99  1  0.50000000  0.50008980  0.97938898  1
  C  C100  1  0.50000000  0.49637207  0.22933164  1
  C  C101  1  0.50000000  0.50001969  0.72905709  1
  C  C102  1  0.50000000  0.49680152  0.35390611  1
  C  C103  1  0.50000000  0.50016625  0.85429361  1
  C  C104  1  0.50000000  0.43753298  0.02063215  1
  C  C105  1  0.50000000  0.43808360  0.52082000  1
  C  C106  1  0.50000000  0.43619209  0.39582068  1
  C  C107  1  0.50000000  0.43864192  0.89584549  1
  C  C108  1  0.50000000  0.43581094  0.14565663  1
  C  C109  1  0.50000000  0.43861294  0.64568165  1
  C  C110  1  0.50000000  0.43533629  0.27075441  1
  C  C111  1  0.50000000  0.43871968  0.77076432  1
  C  C112  1  0.50000000  0.46805712  0.04165496  1
  C  C113  1  0.50000000  0.46916849  0.54149743  1
  C  C114  1  0.50000000  0.46700975  0.41661529  1
  C  C115  1  0.50000000  0.46942099  0.91680630  1
  C  C116  1  0.50000000  0.46625174  0.16670678  1
  C  C117  1  0.50000000  0.46942717  0.66650215  1
  C  C118  1  0.50000000  0.46593217  0.29162990  1
  C  C119  1  0.50000000  0.46943772  0.79171885  1
  C  C120  1  0.50000000  0.52832972  0.08403033  1
  C  C121  1  0.50000000  0.53105572  0.58287492  1
  C  C122  1  0.50000000  0.52935872  0.45769788  1
  C  C123  1  0.50000000  0.53154512  0.95893744  1
  C  C124  1  0.50000000  0.52713331  0.20879705  1
  C  C125  1  0.50000000  0.53062548  0.70816717  1
  C  C126  1  0.50000000  0.52716310  0.33244169  1
  C  C127  1  0.50000000  0.53073262  0.83324495  1
  C  C128  1  0.50000000  0.55797829  0.10624124  1
  C  C129  1  0.50000000  0.56171779  0.60427209  1
  C  C130  1  0.50000000  0.56071955  0.47788891  1
  C  C131  1  0.50000000  0.56247539  0.97987450  1
  C  C132  1  0.50000000  0.55772065  0.22929218  1
  C  C133  1  0.50000000  0.56130552  0.72913363  1
  C  C134  1  0.50000000  0.55780329  0.35247096  1
  C  C135  1  0.50000000  0.56156524  0.85390617  1
  C  C136  1  0.50000000  0.49908144  0.02099683  1
  C  C137  1  0.50000000  0.49991910  0.52048798  1
  C  C138  1  0.50000000  0.49724742  0.39542025  1
  C  C139  1  0.50000000  0.50036757  0.89612607  1
  C  C140  1  0.50000000  0.49691574  0.14601088  1
  C  C141  1  0.50000000  0.50011518  0.64554949  1
  C  C142  1  0.50000000  0.49633607  0.27059013  1
  C  C143  1  0.50000000  0.50002875  0.77077737  1
  C  C144  1  0.50000000  0.52956402  0.04223639  1
  C  C145  1  0.50000000  0.53137258  0.54093223  1
  C  C146  1  0.50000000  0.52816382  0.41591353  1
  C  C147  1  0.50000000  0.53117644  0.91696089  1
  C  C148  1  0.50000000  0.52726549  0.16750582  1
  C  C149  1  0.50000000  0.53070273  0.66655631  1
  C  C150  1  0.50000000  0.52707430  0.29115792  1
  C  C151  1  0.50000000  0.53064019  0.79163273  1
  C  C152  1  0.50000000  0.58809779  0.08627166  1
  C  C153  1  0.50000000  0.59270504  0.58414653  1
  C  C154  1  0.50000000  0.58892810  0.45317301  1
  C  C155  1  0.50000000  0.59350262  0.95738581  1
  C  C156  1  0.50000000  0.58791527  0.20839214  1
  C  C157  1  0.50000000  0.59195889  0.70848478  1
  C  C158  1  0.50000000  0.58790900  0.33129622  1
  C  C159  1  0.50000000  0.59212012  0.83277824  1
  C  C160  1  0.50000000  0.62338764  0.60545772  1
  C  C161  1  0.50000000  0.62557750  0.97356495  1
  C  C162  1  0.50000000  0.62257424  0.72926181  1
  C  C163  1  0.50000000  0.62298113  0.85296628  1
  C  C164  1  0.50000000  0.56094442  0.02207337  1
  C  C165  1  0.50000000  0.56232475  0.52003838  1
  C  C166  1  0.50000000  0.55783533  0.39376427  1
  C  C167  1  0.50000000  0.56178999  0.89548440  1
  C  C168  1  0.50000000  0.55793906  0.14755471  1
  C  C169  1  0.50000000  0.56151432  0.64584257  1
  C  C170  1  0.50000000  0.55768743  0.27068909  1
  C  C171  1  0.50000000  0.56131193  0.77064087  1
  C  C172  1  0.50000000  0.58914255  0.04686933  1
  C  C173  1  0.50000000  0.59345733  0.54237050  1
  C  C174  1  0.50000000  0.58794622  0.41377441  1
  C  C175  1  0.50000000  0.59275481  0.91560803  1
  C  C176  1  0.50000000  0.58803303  0.16876774  1
  C  C177  1  0.50000000  0.59207807  0.66694450  1
  C  C178  1  0.50000000  0.58783485  0.29168258  1
  C  C179  1  0.50000000  0.59197525  0.79123535  1
  C  C180  1  0.50000000  0.65506618  0.58642126  1
  C  C181  1  0.50000000  0.65591297  0.95432381  1
  C  C182  1  0.50000000  0.65350862  0.70881693  1
  C  C183  1  0.50000000  0.65371092  0.83201608  1
  C  C184  1  0.50000000  0.69215137  0.10243940  1
  C  C185  1  0.50000000  0.68544809  0.60693385  1
  C  C186  1  0.50000000  0.68950886  0.48369923  1
  C  C187  1  0.50000000  0.68745508  0.97523969  1
  C  C188  1  0.50000000  0.69140842  0.22993586  1
  C  C189  1  0.50000000  0.68418550  0.72916755  1
  C  C190  1  0.50000000  0.69234654  0.35698105  1
  C  C191  1  0.50000000  0.68484149  0.85161738  1
  C  C192  1  0.50000000  0.62554107  0.52615684  1
  C  C193  1  0.50000000  0.62342687  0.89426738  1
  C  C194  1  0.50000000  0.62293666  0.64674053  1
  C  C195  1  0.50000000  0.62257722  0.77042205  1
  C  C196  1  0.50000000  0.65586989  0.54538604  1
  C  C197  1  0.50000000  0.65511383  0.91326852  1
  C  C198  1  0.50000000  0.65367776  0.66764668  1
  C  C199  1  0.50000000  0.65351552  0.79083684  1
  C  C200  1  0.50000000  0.72009059  0.07821867  1
  C  C201  1  0.50000000  0.71602619  0.58628068  1
  C  C202  1  0.50000000  0.71870707  0.46191271  1
  C  C203  1  0.50000000  0.71707396  0.95285147  1
  C  C204  1  0.50000000  0.72012772  0.20665654  1
  C  C205  1  0.50000000  0.71460697  0.70866183  1
  C  C206  1  0.50000000  0.72078176  0.33341117  1
  C  C207  1  0.50000000  0.71487398  0.83042501  1
  C  C208  1  0.50000000  0.68961446  0.01596158  1
  C  C209  1  0.50000000  0.68739429  0.52441395  1
  C  C210  1  0.50000000  0.69199693  0.39718500  1
  C  C211  1  0.50000000  0.68548332  0.89270621  1
  C  C212  1  0.50000000  0.69228274  0.14266177  1
  C  C213  1  0.50000000  0.68479414  0.64801358  1
  C  C214  1  0.50000000  0.69152389  0.27011365  1
  C  C215  1  0.50000000  0.68417047  0.77043988  1
  C  C216  1  0.50000000  0.71883030  0.03771572  1
  C  C217  1  0.50000000  0.71703386  0.54674029  1
  C  C218  1  0.50000000  0.71992309  0.42144014  1
  C  C219  1  0.50000000  0.71607384  0.91330825  1
  C  C220  1  0.50000000  0.72059744  0.16644352  1
  C  C221  1  0.50000000  0.71484577  0.66913851  1
  C  C222  1  0.50000000  0.72034067  0.29321452  1
  C  C223  1  0.50000000  0.71458933  0.79091418  1
  H  H224  1  0.50000000  0.25987152  0.09567932  1
  H  H225  1  0.50000000  0.26147747  0.59815892  1
  H  H226  1  0.50000000  0.26052605  0.47373567  1
  H  H227  1  0.50000000  0.26128990  0.97128047  1
  H  H228  1  0.50000000  0.25900638  0.22155716  1
  H  H229  1  0.50000000  0.26188838  0.72263965  1
  H  H230  1  0.50000000  0.25918090  0.34768358  1
  H  H231  1  0.50000000  0.26185215  0.84702443  1
  H  H232  1  0.50000000  0.26071679  0.02603016  1
  H  H233  1  0.50000000  0.26120910  0.52859137  1
  H  H234  1  0.50000000  0.25983067  0.40390603  1
  H  H235  1  0.50000000  0.26164777  0.90136663  1
  H  H236  1  0.50000000  0.25932277  0.15199906  1
  H  H237  1  0.50000000  0.26177771  0.65315528  1
  H  H238  1  0.50000000  0.25900976  0.27806133  1
  H  H239  1  0.50000000  0.26197932  0.77722641  1
  H  H240  1  0.50000000  0.74491751  0.09142274  1
  H  H241  1  0.50000000  0.73955951  0.60198020  1
  H  H242  1  0.50000000  0.74276995  0.47677414  1
  H  H243  1  0.50000000  0.74135037  0.96711341  1
  H  H244  1  0.50000000  0.74437268  0.22121184  1
  H  H245  1  0.50000000  0.73840882  0.72382147  1
  H  H246  1  0.50000000  0.74529579  0.34731231  1
  H  H247  1  0.50000000  0.73880666  0.84527677  1
  H  H248  1  0.50000000  0.74285886  0.02275681  1
  H  H249  1  0.50000000  0.74128511  0.53238677  1
  H  H250  1  0.50000000  0.74472950  0.40815695  1
  H  H251  1  0.50000000  0.73959276  0.89754955  1
  H  H252  1  0.50000000  0.74514044  0.15255404  1
  H  H253  1  0.50000000  0.73869495  0.65410142  1
  H  H254  1  0.50000000  0.74456528  0.27861888  1
  H  H255  1  0.50000000  0.73835362  0.77567196  1
  H  H256  1  0.50000000  0.61166177  0.10184582  1
  H  H257  1  0.50000000  0.61396455  0.46330366  1
  H  H258  1  0.50000000  0.61158210  0.22379389  1
  H  H259  1  0.50000000  0.61180242  0.34617633  1
  H  H260  1  0.50000000  0.62891106  0.00402550  1
  H  H261  1  0.50000000  0.61425902  0.03693062  1
  H  H262  1  0.50000000  0.61157940  0.39838033  1
  H  H263  1  0.50000000  0.61188004  0.15380463  1
  H  H264  1  0.50000000  0.61157984  0.27644475  1
  H  H265  1  0.50000000  0.66756171  0.08868871  1
  H  H266  1  0.50000000  0.66635081  0.46714184  1
  H  H267  1  0.50000000  0.66707945  0.21557934  1
  H  H268  1  0.50000000  0.66803852  0.34262481  1
  H  H269  1  0.50000000  0.62908040  0.49572136  1
  H  H270  1  0.50000000  0.66645083  0.03252285  1
  H  H271  1  0.50000000  0.66732377  0.41073888  1
  H  H272  1  0.50000000  0.66784036  0.15672336  1
  H  H273  1  0.50000000  0.66729634  0.28472352  1
