# generated using pymatgen
data_H25C112
_symmetry_space_group_name_H-M   'P 1'
_cell_length_a   20.00000000
_cell_length_b   40.19450000
_cell_length_c   34.48015602
_cell_angle_alpha   90.00000000
_cell_angle_beta   90.00000000
_cell_angle_gamma   90.00000000
_symmetry_Int_Tables_number   1
_chemical_formula_structural   H25C112
_chemical_formula_sum   'H50 C224'
_cell_volume   27718.25262628
_cell_formula_units_Z   2
loop_
 _symmetry_equiv_pos_site_id
 _symmetry_equiv_pos_as_xyz
  1  'x, y, z'
loop_
 _atom_site_type_symbol
 _atom_site_label
 _atom_site_symmetry_multiplicity
 _atom_site_fract_x
 _atom_site_fract_y
 _atom_site_fract_z
 _atom_site_occupancy
  C  C0  1  0.50000000  0.27332631  0.07681314  1
  C  C1  1  0.50000000  0.28886104  0.58474402  1
  C  C2  1  0.50000000  0.27944114  0.46296140  1
  C  C3  1  0.50000000  0.28832961  0.95525414  1
  C  C4  1  0.50000000  0.26261819  0.20562726  1
  C  C5  1  0.50000000  0.28914638  0.70802726  1
  C  C6  1  0.50000000  0.26449374  0.33471878  1
  C  C7  1  0.50000000  0.28899859  0.83153341  1
  C  C8  1  0.50000000  0.29951889  0.10384448  1
  C  C9  1  0.50000000  0.31885428  0.60535678  1
  C  C10  1  0.50000000  0.31199699  0.47911997  1
  C  C11  1  0.50000000  0.31716234  0.97820582  1
  C  C12  1  0.50000000  0.29153918  0.22869292  1
  C  C13  1  0.50000000  0.31921343  0.72905058  1
  C  C14  1  0.50000000  0.29539168  0.35391782  1
  C  C15  1  0.50000000  0.31897491  0.85271238  1
  C  C16  1  0.50000000  0.27938108  0.03706246  1
  C  C17  1  0.50000000  0.28840912  0.54471452  1
  C  C18  1  0.50000000  0.27330443  0.42322517  1
  C  C19  1  0.50000000  0.28871408  0.91521136  1
  C  C20  1  0.50000000  0.26453168  0.16519835  1
  C  C21  1  0.50000000  0.28911044  0.66820068  1
  C  C22  1  0.50000000  0.26262472  0.29431054  1
  C  C23  1  0.50000000  0.28908256  0.79168146  1
  C  C24  1  0.50000000  0.33162741  0.08812178  1
  C  C25  1  0.50000000  0.34921902  0.58418739  1
  C  C26  1  0.50000000  0.33751392  0.45112342  1
  C  C27  1  0.50000000  0.34861628  0.95752666  1
  C  C28  1  0.50000000  0.32229159  0.20918197  1
  C  C29  1  0.50000000  0.34990927  0.70864645  1
  C  C30  1  0.50000000  0.32409517  0.33055661  1
  C  C31  1  0.50000000  0.34971961  0.83245995  1
  C  C32  1  0.50000000  0.38021806  0.60491102  1
  C  C33  1  0.50000000  0.38026849  0.97534314  1
  C  C34  1  0.50000000  0.38080156  0.72924297  1
  C  C35  1  0.50000000  0.38044534  0.85337684  1
  C  C36  1  0.50000000  0.31192098  0.02079699  1
  C  C37  1  0.50000000  0.31723341  0.52170175  1
  C  C38  1  0.50000000  0.29945563  0.39612348  1
  C  C39  1  0.50000000  0.31868137  0.89447798  1
  C  C40  1  0.50000000  0.29546090  0.14604620  1
  C  C41  1  0.50000000  0.31910567  0.64707857  1
  C  C42  1  0.50000000  0.29152485  0.27123001  1
  C  C43  1  0.50000000  0.31918406  0.77070143  1
  C  C44  1  0.50000000  0.33748271  0.04873855  1
  C  C45  1  0.50000000  0.34871105  0.54233909  1
  C  C46  1  0.50000000  0.33159126  0.41175451  1
  C  C47  1  0.50000000  0.34908249  0.91563074  1
  C  C48  1  0.50000000  0.32415993  0.16937867  1
  C  C49  1  0.50000000  0.34982650  0.66732572  1
  C  C50  1  0.50000000  0.32226742  0.29073674  1
  C  C51  1  0.50000000  0.34986277  0.79112459  1
  C  C52  1  0.50000000  0.41112249  0.58482360  1
  C  C53  1  0.50000000  0.41051802  0.95629770  1
  C  C54  1  0.50000000  0.41137687  0.70853750  1
  C  C55  1  0.50000000  0.41113510  0.83284393  1
  C  C56  1  0.50000000  0.44142757  0.10409575  1
  C  C57  1  0.50000000  0.44194820  0.60512541  1
  C  C58  1  0.50000000  0.44250425  0.48130698  1
  C  C59  1  0.50000000  0.44174047  0.97807065  1
  C  C60  1  0.50000000  0.44089279  0.22992790  1
  C  C61  1  0.50000000  0.44210170  0.72919428  1
  C  C62  1  0.50000000  0.44120461  0.35575334  1
  C  C63  1  0.50000000  0.44198161  0.85343229  1
  C  C64  1  0.50000000  0.38035136  0.52450454  1
  C  C65  1  0.50000000  0.38008411  0.89489362  1
  C  C66  1  0.50000000  0.38055691  0.64642033  1
  C  C67  1  0.50000000  0.38077840  0.77052679  1
  C  C68  1  0.50000000  0.41062470  0.54349838  1
  C  C69  1  0.50000000  0.41099804  0.91495871  1
  C  C70  1  0.50000000  0.41122988  0.66693618  1
  C  C71  1  0.50000000  0.41134127  0.79123944  1
  C  C72  1  0.50000000  0.47146831  0.08254398  1
  C  C73  1  0.50000000  0.47272186  0.58402737  1
  C  C74  1  0.50000000  0.47197943  0.45939190  1
  C  C75  1  0.50000000  0.47246353  0.95726112  1
  C  C76  1  0.50000000  0.47084973  0.20812612  1
  C  C77  1  0.50000000  0.47293242  0.70842873  1
  C  C78  1  0.50000000  0.47101177  0.33374394  1
  C  C79  1  0.50000000  0.47282746  0.83276922  1
  C  C80  1  0.50000000  0.50195307  0.10355964  1
  C  C81  1  0.50000000  0.50334246  0.60449126  1
  C  C82  1  0.50000000  0.50287176  0.47972662  1
  C  C83  1  0.50000000  0.50293572  0.97845055  1
  C  C84  1  0.50000000  0.50147889  0.22894425  1
  C  C85  1  0.50000000  0.50358683  0.72906899  1
  C  C86  1  0.50000000  0.50174428  0.35440300  1
  C  C87  1  0.50000000  0.50341075  0.85363618  1
  C  C88  1  0.50000000  0.44241539  0.01850547  1
  C  C89  1  0.50000000  0.44184607  0.52172522  1
  C  C90  1  0.50000000  0.44150526  0.39574489  1
  C  C91  1  0.50000000  0.44183247  0.89464445  1
  C  C92  1  0.50000000  0.44117795  0.14409352  1
  C  C93  1  0.50000000  0.44207086  0.64633245  1
  C  C94  1  0.50000000  0.44092362  0.26992487  1
  C  C95  1  0.50000000  0.44208209  0.77057299  1
  C  C96  1  0.50000000  0.47189696  0.04040882  1
  C  C97  1  0.50000000  0.47257671  0.54250634  1
  C  C98  1  0.50000000  0.47155733  0.41725440  1
  C  C99  1  0.50000000  0.47261243  0.91572543  1
  C  C100  1  0.50000000  0.47099939  0.16606113  1
  C  C101  1  0.50000000  0.47289625  0.66698357  1
  C  C102  1  0.50000000  0.47089257  0.29166702  1
  C  C103  1  0.50000000  0.47291097  0.79132140  1
  C  C104  1  0.50000000  0.53292796  0.08277879  1
  C  C105  1  0.50000000  0.53404426  0.58343028  1
  C  C106  1  0.50000000  0.53339219  0.45845343  1
  C  C107  1  0.50000000  0.53378457  0.95771996  1
  C  C108  1  0.50000000  0.53234765  0.20797275  1
  C  C109  1  0.50000000  0.53428055  0.70822502  1
  C  C110  1  0.50000000  0.53247875  0.33328169  1
  C  C111  1  0.50000000  0.53416380  0.83296254  1
  C  C112  1  0.50000000  0.56347908  0.10388057  1
  C  C113  1  0.50000000  0.56482900  0.60421617  1
  C  C114  1  0.50000000  0.56419675  0.47921848  1
  C  C115  1  0.50000000  0.56435620  0.97887182  1
  C  C116  1  0.50000000  0.56301913  0.22900564  1
  C  C117  1  0.50000000  0.56505016  0.72909842  1
  C  C118  1  0.50000000  0.56328978  0.35414622  1
  C  C119  1  0.50000000  0.56489119  0.85395059  1
  C  C120  1  0.50000000  0.50276796  0.02003685  1
  C  C121  1  0.50000000  0.50304423  0.52131424  1
  C  C122  1  0.50000000  0.50202640  0.39620363  1
  C  C123  1  0.50000000  0.50324290  0.89526401  1
  C  C124  1  0.50000000  0.50171413  0.14535385  1
  C  C125  1  0.50000000  0.50348306  0.64611807  1
  C  C126  1  0.50000000  0.50150085  0.27078002  1
  C  C127  1  0.50000000  0.50356953  0.77067371  1
  C  C128  1  0.50000000  0.53329687  0.04130092  1
  C  C129  1  0.50000000  0.53389242  0.54203777  1
  C  C130  1  0.50000000  0.53301451  0.41697563  1
  C  C131  1  0.50000000  0.53394309  0.91632577  1
  C  C132  1  0.50000000  0.53246138  0.16643878  1
  C  C133  1  0.50000000  0.53422221  0.66679318  1
  C  C134  1  0.50000000  0.53236065  0.29175385  1
  C  C135  1  0.50000000  0.53424932  0.79153110  1
  C  C136  1  0.50000000  0.59424333  0.08316521  1
  C  C137  1  0.50000000  0.59538689  0.58326884  1
  C  C138  1  0.50000000  0.59468629  0.45822297  1
  C  C139  1  0.50000000  0.59508071  0.95817894  1
  C  C140  1  0.50000000  0.59368401  0.20818944  1
  C  C141  1  0.50000000  0.59567691  0.70827268  1
  C  C142  1  0.50000000  0.59384573  0.33322217  1
  C  C143  1  0.50000000  0.59555200  0.83323502  1
  C  C144  1  0.50000000  0.62484302  0.10422858  1
  C  C145  1  0.50000000  0.62614367  0.60407132  1
  C  C146  1  0.50000000  0.62548805  0.47901534  1
  C  C147  1  0.50000000  0.62567056  0.97926414  1
  C  C148  1  0.50000000  0.62437055  0.22916363  1
  C  C149  1  0.50000000  0.62636542  0.72915159  1
  C  C150  1  0.50000000  0.62463975  0.35405071  1
  C  C151  1  0.50000000  0.62621216  0.85421741  1
  C  C152  1  0.50000000  0.56408828  0.02052018  1
  C  C153  1  0.50000000  0.56446322  0.52087636  1
  C  C154  1  0.50000000  0.56357084  0.39587089  1
  C  C155  1  0.50000000  0.56473855  0.89554902  1
  C  C156  1  0.50000000  0.56325025  0.14558932  1
  C  C157  1  0.50000000  0.56495960  0.64581957  1
  C  C158  1  0.50000000  0.56303434  0.27071948  1
  C  C159  1  0.50000000  0.56503232  0.77068319  1
  C  C160  1  0.50000000  0.59457560  0.04151487  1
  C  C161  1  0.50000000  0.59518106  0.54157721  1
  C  C162  1  0.50000000  0.59434535  0.41655985  1
  C  C163  1  0.50000000  0.59529350  0.91649349  1
  C  C164  1  0.50000000  0.59380072  0.16650374  1
  C  C165  1  0.50000000  0.59561048  0.66654176  1
  C  C166  1  0.50000000  0.59371234  0.29153538  1
  C  C167  1  0.50000000  0.59564480  0.79151046  1
  C  C168  1  0.50000000  0.65577970  0.08347497  1
  C  C169  1  0.50000000  0.65689311  0.58297667  1
  C  C170  1  0.50000000  0.65621207  0.45792410  1
  C  C171  1  0.50000000  0.65659028  0.95849257  1
  C  C172  1  0.50000000  0.65520784  0.20829430  1
  C  C173  1  0.50000000  0.65719037  0.70817485  1
  C  C174  1  0.50000000  0.65536441  0.33301407  1
  C  C175  1  0.50000000  0.65709730  0.83337360  1
  C  C176  1  0.50000000  0.68630254  0.10433737  1
  C  C177  1  0.50000000  0.68761761  0.60361329  1
  C  C178  1  0.50000000  0.68699534  0.47845046  1
  C  C179  1  0.50000000  0.68714232  0.97942279  1
  C  C180  1  0.50000000  0.68582625  0.22895398  1
  C  C181  1  0.50000000  0.68783547  0.72894214  1
  C  C182  1  0.50000000  0.68609420  0.35354696  1
  C  C183  1  0.50000000  0.68768843  0.85426380  1
  C  C184  1  0.50000000  0.62537544  0.02072197  1
  C  C185  1  0.50000000  0.62577391  0.52049379  1
  C  C186  1  0.50000000  0.62493070  0.39546478  1
  C  C187  1  0.50000000  0.62606013  0.89570198  1
  C  C188  1  0.50000000  0.62457721  0.14565723  1
  C  C189  1  0.50000000  0.62627336  0.64556810  1
  C  C190  1  0.50000000  0.62438233  0.27055273  1
  C  C191  1  0.50000000  0.62635400  0.77066600  1
  C  C192  1  0.50000000  0.65608313  0.04183201  1
  C  C193  1  0.50000000  0.65668685  0.54127930  1
  C  C194  1  0.50000000  0.65587559  0.41624596  1
  C  C195  1  0.50000000  0.65681193  0.91680617  1
  C  C196  1  0.50000000  0.65530782  0.16668551  1
  C  C197  1  0.50000000  0.65713780  0.66644607  1
  C  C198  1  0.50000000  0.65522668  0.29140751  1
  C  C199  1  0.50000000  0.65717610  0.79165627  1
  C  C200  1  0.50000000  0.71644885  0.08303781  1
  C  C201  1  0.50000000  0.71751346  0.58178150  1
  C  C202  1  0.50000000  0.71686484  0.45659345  1
  C  C203  1  0.50000000  0.71725906  0.95800826  1
  C  C204  1  0.50000000  0.71587702  0.20755207  1
  C  C205  1  0.50000000  0.71777493  0.70720647  1
  C  C206  1  0.50000000  0.71601130  0.33193291  1
  C  C207  1  0.50000000  0.71769625  0.83267968  1
  C  C208  1  0.50000000  0.68686986  0.02132463  1
  C  C209  1  0.50000000  0.68724619  0.52036744  1
  C  C210  1  0.50000000  0.68639599  0.39536111  1
  C  C211  1  0.50000000  0.68755491  0.89621349  1
  C  C212  1  0.50000000  0.68602427  0.14613793  1
  C  C213  1  0.50000000  0.68774293  0.64557765  1
  C  C214  1  0.50000000  0.68582974  0.27070728  1
  C  C215  1  0.50000000  0.68783919  0.77092643  1
  C  C216  1  0.50000000  0.71674517  0.04315226  1
  C  C217  1  0.50000000  0.71734232  0.54183344  1
  C  C218  1  0.50000000  0.71654078  0.41669349  1
  C  C219  1  0.50000000  0.71744818  0.91806616  1
  C  C220  1  0.50000000  0.71597178  0.16770359  1
  C  C221  1  0.50000000  0.71773731  0.66723223  1
  C  C222  1  0.50000000  0.71587744  0.29210238  1
  C  C223  1  0.50000000  0.71776697  0.79271582  1
  H  H224  1  0.50000000  0.24745811  0.08677753  1
  H  H225  1  0.50000000  0.26500037  0.59989728  1
  H  H226  1  0.50000000  0.25751538  0.48162168  1
  H  H227  1  0.50000000  0.26393147  0.96900700  1
  H  H228  1  0.50000000  0.23805831  0.21938935  1
  H  H229  1  0.50000000  0.26522061  0.72301924  1
  H  H230  1  0.50000000  0.24130559  0.35138727  1
  H  H231  1  0.50000000  0.26510630  0.84662692  1
  H  H232  1  0.50000000  0.25734737  0.01858392  1
  H  H233  1  0.50000000  0.26392258  0.53119619  1
  H  H234  1  0.50000000  0.24740846  0.41338469  1
  H  H235  1  0.50000000  0.26477491  0.90025317  1
  H  H236  1  0.50000000  0.24145582  0.14830498  1
  H  H237  1  0.50000000  0.26519051  0.65318705  1
  H  H238  1  0.50000000  0.23799793  0.28077010  1
  H  H239  1  0.50000000  0.26522373  0.77651702  1
  H  H240  1  0.50000000  0.74028344  0.09826111  1
  H  H241  1  0.50000000  0.74158043  0.59654693  1
  H  H242  1  0.50000000  0.74098869  0.47125076  1
  H  H243  1  0.50000000  0.74119805  0.97309377  1
  H  H244  1  0.50000000  0.73973581  0.22264647  1
  H  H245  1  0.50000000  0.74176610  0.72214527  1
  H  H246  1  0.50000000  0.73998919  0.34678973  1
  H  H247  1  0.50000000  0.74163699  0.84772235  1
  H  H248  1  0.50000000  0.74084816  0.02848933  1
  H  H249  1  0.50000000  0.74127017  0.52674685  1
  H  H250  1  0.50000000  0.74037964  0.40148067  1
  H  H251  1  0.50000000  0.74155693  0.90339610  1
  H  H252  1  0.50000000  0.73989941  0.15272252  1
  H  H253  1  0.50000000  0.74171813  0.65227139  1
  H  H254  1  0.50000000  0.73975030  0.27704773  1
  H  H255  1  0.50000000  0.74182820  0.77795625  1
  H  H256  1  0.50000000  0.35351677  0.10674020  1
  H  H257  1  0.50000000  0.36355442  0.45846484  1
  H  H258  1  0.50000000  0.34581806  0.22492474  1
  H  H259  1  0.50000000  0.34890898  0.34329786  1
  H  H260  1  0.50000000  0.38198761  0.00634866  1
  H  H261  1  0.50000000  0.36351819  0.04134260  1
  H  H262  1  0.50000000  0.35340946  0.39300571  1
  H  H263  1  0.50000000  0.34895687  0.15655587  1
  H  H264  1  0.50000000  0.34574460  0.27486188  1
  H  H265  1  0.50000000  0.41754839  0.08895162  1
  H  H266  1  0.50000000  0.41896870  0.46564085  1
  H  H267  1  0.50000000  0.41689970  0.21499817  1
  H  H268  1  0.50000000  0.41709047  0.34109229  1
  H  H269  1  0.50000000  0.38195559  0.49353305  1
  H  H270  1  0.50000000  0.41893779  0.03428244  1
  H  H271  1  0.50000000  0.41762203  0.41085825  1
  H  H272  1  0.50000000  0.41716377  0.15895297  1
  H  H273  1  0.50000000  0.41696532  0.28492584  1
