# generated using pymatgen
data_H2C15
_symmetry_space_group_name_H-M   'P 1'
_cell_length_a   20.00000000
_cell_length_b   40.19450000
_cell_length_c   34.33955247
_cell_angle_alpha   90.00000000
_cell_angle_beta   90.00000000
_cell_angle_gamma   90.00000000
_symmetry_Int_Tables_number   1
_chemical_formula_structural   H2C15
_chemical_formula_sum   'H32 C240'
_cell_volume   27605.22283545
_cell_formula_units_Z   16
loop_
 _symmetry_equiv_pos_site_id
 _symmetry_equiv_pos_as_xyz
  1  'x, y, z'
loop_
 _atom_site_type_symbol
 _atom_site_label
 _atom_site_symmetry_multiplicity
 _atom_site_fract_x
 _atom_site_fract_y
 _atom_site_fract_z
 _atom_site_occupancy
  C  C0  1  0.50000000  0.28563636  0.08227773  1
  C  C1  1  0.50000000  0.28563790  0.58227154  1
  C  C2  1  0.50000000  0.28573746  0.45739962  1
  C  C3  1  0.50000000  0.28574940  0.95741872  1
  C  C4  1  0.50000000  0.28552038  0.20741757  1
  C  C5  1  0.50000000  0.28552587  0.70740298  1
  C  C6  1  0.50000000  0.28565518  0.33244319  1
  C  C7  1  0.50000000  0.28563672  0.83245184  1
  C  C8  1  0.50000000  0.31558646  0.10387778  1
  C  C9  1  0.50000000  0.31559029  0.60386193  1
  C  C10  1  0.50000000  0.31573913  0.47883276  1
  C  C11  1  0.50000000  0.31575437  0.97884103  1
  C  C12  1  0.50000000  0.31552326  0.22889805  1
  C  C13  1  0.50000000  0.31552242  0.72888514  1
  C  C14  1  0.50000000  0.31567055  0.35386333  1
  C  C15  1  0.50000000  0.31565496  0.85386506  1
  C  C16  1  0.50000000  0.28570424  0.04220513  1
  C  C17  1  0.50000000  0.28569299  0.54220016  1
  C  C18  1  0.50000000  0.28573591  0.41732337  1
  C  C19  1  0.50000000  0.28572284  0.91733952  1
  C  C20  1  0.50000000  0.28559155  0.16733860  1
  C  C21  1  0.50000000  0.28560085  0.66732435  1
  C  C22  1  0.50000000  0.28555805  0.29237420  1
  C  C23  1  0.50000000  0.28555556  0.79236331  1
  C  C24  1  0.50000000  0.34629375  0.08326341  1
  C  C25  1  0.50000000  0.34629697  0.58324943  1
  C  C26  1  0.50000000  0.34640499  0.45820175  1
  C  C27  1  0.50000000  0.34641428  0.95820402  1
  C  C28  1  0.50000000  0.34622974  0.20827448  1
  C  C29  1  0.50000000  0.34623351  0.70825906  1
  C  C30  1  0.50000000  0.34632330  0.33319887  1
  C  C31  1  0.50000000  0.34630878  0.83320139  1
  C  C32  1  0.50000000  0.37716293  0.10419870  1
  C  C33  1  0.50000000  0.37716300  0.60418642  1
  C  C34  1  0.50000000  0.37726251  0.47914913  1
  C  C35  1  0.50000000  0.37727067  0.97915157  1
  C  C36  1  0.50000000  0.37713691  0.22915526  1
  C  C37  1  0.50000000  0.37713543  0.72915096  1
  C  C38  1  0.50000000  0.37720428  0.35411019  1
  C  C39  1  0.50000000  0.37719481  0.85410511  1
  C  C40  1  0.50000000  0.31572970  0.02082561  1
  C  C41  1  0.50000000  0.31571687  0.52081801  1
  C  C42  1  0.50000000  0.31571604  0.39585184  1
  C  C43  1  0.50000000  0.31569865  0.89585386  1
  C  C44  1  0.50000000  0.31559203  0.14590493  1
  C  C45  1  0.50000000  0.31560087  0.64588664  1
  C  C46  1  0.50000000  0.31554335  0.27088858  1
  C  C47  1  0.50000000  0.31553727  0.77087797  1
  C  C48  1  0.50000000  0.34636267  0.04156170  1
  C  C49  1  0.50000000  0.34635493  0.54155213  1
  C  C50  1  0.50000000  0.34638025  0.41651312  1
  C  C51  1  0.50000000  0.34637390  0.91651258  1
  C  C52  1  0.50000000  0.34625747  0.16659005  1
  C  C53  1  0.50000000  0.34626264  0.66657766  1
  C  C54  1  0.50000000  0.34625096  0.29151882  1
  C  C55  1  0.50000000  0.34624478  0.79151605  1
  C  C56  1  0.50000000  0.40784762  0.08339291  1
  C  C57  1  0.50000000  0.40784692  0.58338813  1
  C  C58  1  0.50000000  0.40790348  0.45830645  1
  C  C59  1  0.50000000  0.40790740  0.95830574  1
  C  C60  1  0.50000000  0.40781459  0.20834904  1
  C  C61  1  0.50000000  0.40781666  0.70834545  1
  C  C62  1  0.50000000  0.40785897  0.33330914  1
  C  C63  1  0.50000000  0.40785392  0.83330736  1
  C  C64  1  0.50000000  0.43851217  0.10418980  1
  C  C65  1  0.50000000  0.43851215  0.60418748  1
  C  C66  1  0.50000000  0.43855381  0.47912842  1
  C  C67  1  0.50000000  0.43855784  0.97912764  1
  C  C68  1  0.50000000  0.43850094  0.22912485  1
  C  C69  1  0.50000000  0.43850331  0.72912419  1
  C  C70  1  0.50000000  0.43852838  0.35409558  1
  C  C71  1  0.50000000  0.43852511  0.85409298  1
  C  C72  1  0.50000000  0.37726015  0.02069632  1
  C  C73  1  0.50000000  0.37725234  0.52069167  1
  C  C74  1  0.50000000  0.37723519  0.39562948  1
  C  C75  1  0.50000000  0.37722825  0.89562453  1
  C  C76  1  0.50000000  0.37714958  0.14572636  1
  C  C77  1  0.50000000  0.37715473  0.64571463  1
  C  C78  1  0.50000000  0.37715485  0.27067971  1
  C  C79  1  0.50000000  0.37715285  0.77067354  1
  C  C80  1  0.50000000  0.40789840  0.04157163  1
  C  C81  1  0.50000000  0.40789252  0.54156756  1
  C  C82  1  0.50000000  0.40788099  0.41648704  1
  C  C83  1  0.50000000  0.40787704  0.91648445  1
  C  C84  1  0.50000000  0.40781524  0.16655882  1
  C  C85  1  0.50000000  0.40781841  0.66655336  1
  C  C86  1  0.50000000  0.40783459  0.29151762  1
  C  C87  1  0.50000000  0.40783065  0.79151469  1
  C  C88  1  0.50000000  0.46931770  0.08332116  1
  C  C89  1  0.50000000  0.46931876  0.58331947  1
  C  C90  1  0.50000000  0.46933400  0.45824218  1
  C  C91  1  0.50000000  0.46933613  0.95823994  1
  C  C92  1  0.50000000  0.46930868  0.20826970  1
  C  C93  1  0.50000000  0.46931024  0.70826895  1
  C  C94  1  0.50000000  0.46932161  0.33323149  1
  C  C95  1  0.50000000  0.46932050  0.83323052  1
  C  C96  1  0.50000000  0.50000000  0.10413129  1
  C  C97  1  0.50000000  0.50000000  0.60413035  1
  C  C98  1  0.50000000  0.50000000  0.47907650  1
  C  C99  1  0.50000000  0.50000000  0.97907572  1
  C  C100  1  0.50000000  0.50000000  0.22906145  1
  C  C101  1  0.50000000  0.50000000  0.72906122  1
  C  C102  1  0.50000000  0.50000000  0.35404511  1
  C  C103  1  0.50000000  0.50000000  0.85404383  1
  C  C104  1  0.50000000  0.43856258  0.02078075  1
  C  C105  1  0.50000000  0.43855860  0.52078048  1
  C  C106  1  0.50000000  0.43853944  0.39572383  1
  C  C107  1  0.50000000  0.43853662  0.89572207  1
  C  C108  1  0.50000000  0.43850313  0.14581373  1
  C  C109  1  0.50000000  0.43850400  0.64581222  1
  C  C110  1  0.50000000  0.43851062  0.27075479  1
  C  C111  1  0.50000000  0.43850920  0.77075433  1
  C  C112  1  0.50000000  0.46933523  0.04169388  1
  C  C113  1  0.50000000  0.46933311  0.54169307  1
  C  C114  1  0.50000000  0.46932365  0.41661681  1
  C  C115  1  0.50000000  0.46932300  0.91661472  1
  C  C116  1  0.50000000  0.46930849  0.16667240  1
  C  C117  1  0.50000000  0.46930845  0.66667161  1
  C  C118  1  0.50000000  0.46931444  0.29162435  1
  C  C119  1  0.50000000  0.46931387  0.79162392  1
  C  C120  1  0.50000000  0.53068231  0.08332116  1
  C  C121  1  0.50000000  0.53068124  0.58331947  1
  C  C122  1  0.50000000  0.53066600  0.45824218  1
  C  C123  1  0.50000000  0.53066387  0.95823994  1
  C  C124  1  0.50000000  0.53069132  0.20826970  1
  C  C125  1  0.50000000  0.53068977  0.70826895  1
  C  C126  1  0.50000000  0.53067839  0.33323149  1
  C  C127  1  0.50000000  0.53067950  0.83323052  1
  C  C128  1  0.50000000  0.56148784  0.10418980  1
  C  C129  1  0.50000000  0.56148786  0.60418748  1
  C  C130  1  0.50000000  0.56144620  0.47912842  1
  C  C131  1  0.50000000  0.56144216  0.97912764  1
  C  C132  1  0.50000000  0.56149907  0.22912485  1
  C  C133  1  0.50000000  0.56149669  0.72912419  1
  C  C134  1  0.50000000  0.56147162  0.35409558  1
  C  C135  1  0.50000000  0.56147489  0.85409298  1
  C  C136  1  0.50000000  0.50000000  0.02086673  1
  C  C137  1  0.50000000  0.50000000  0.52086783  1
  C  C138  1  0.50000000  0.50000000  0.39581198  1
  C  C139  1  0.50000000  0.50000000  0.89581106  1
  C  C140  1  0.50000000  0.50000000  0.14588728  1
  C  C141  1  0.50000000  0.50000000  0.64588616  1
  C  C142  1  0.50000000  0.50000000  0.27082330  1
  C  C143  1  0.50000000  0.50000000  0.77082312  1
  C  C144  1  0.50000000  0.53066477  0.04169388  1
  C  C145  1  0.50000000  0.53066689  0.54169307  1
  C  C146  1  0.50000000  0.53067636  0.41661681  1
  C  C147  1  0.50000000  0.53067701  0.91661472  1
  C  C148  1  0.50000000  0.53069151  0.16667240  1
  C  C149  1  0.50000000  0.53069155  0.66667161  1
  C  C150  1  0.50000000  0.53068556  0.29162435  1
  C  C151  1  0.50000000  0.53068613  0.79162392  1
  C  C152  1  0.50000000  0.59215239  0.08339291  1
  C  C153  1  0.50000000  0.59215309  0.58338813  1
  C  C154  1  0.50000000  0.59209652  0.45830645  1
  C  C155  1  0.50000000  0.59209261  0.95830574  1
  C  C156  1  0.50000000  0.59218541  0.20834904  1
  C  C157  1  0.50000000  0.59218334  0.70834545  1
  C  C158  1  0.50000000  0.59214103  0.33330914  1
  C  C159  1  0.50000000  0.59214608  0.83330736  1
  C  C160  1  0.50000000  0.62283707  0.10419869  1
  C  C161  1  0.50000000  0.62283700  0.60418642  1
  C  C162  1  0.50000000  0.62273749  0.47914913  1
  C  C163  1  0.50000000  0.62272933  0.97915157  1
  C  C164  1  0.50000000  0.62286310  0.22915526  1
  C  C165  1  0.50000000  0.62286458  0.72915096  1
  C  C166  1  0.50000000  0.62279572  0.35411019  1
  C  C167  1  0.50000000  0.62280519  0.85410511  1
  C  C168  1  0.50000000  0.56143742  0.02078075  1
  C  C169  1  0.50000000  0.56144140  0.52078048  1
  C  C170  1  0.50000000  0.56146056  0.39572383  1
  C  C171  1  0.50000000  0.56146338  0.89572207  1
  C  C172  1  0.50000000  0.56149687  0.14581373  1
  C  C173  1  0.50000000  0.56149600  0.64581222  1
  C  C174  1  0.50000000  0.56148938  0.27075479  1
  C  C175  1  0.50000000  0.56149081  0.77075433  1
  C  C176  1  0.50000000  0.59210160  0.04157163  1
  C  C177  1  0.50000000  0.59210749  0.54156756  1
  C  C178  1  0.50000000  0.59211901  0.41648704  1
  C  C179  1  0.50000000  0.59212296  0.91648445  1
  C  C180  1  0.50000000  0.59218476  0.16655882  1
  C  C181  1  0.50000000  0.59218159  0.66655336  1
  C  C182  1  0.50000000  0.59216541  0.29151762  1
  C  C183  1  0.50000000  0.59216936  0.79151469  1
  C  C184  1  0.50000000  0.65370625  0.08326341  1
  C  C185  1  0.50000000  0.65370304  0.58324943  1
  C  C186  1  0.50000000  0.65359502  0.45820175  1
  C  C187  1  0.50000000  0.65358572  0.95820402  1
  C  C188  1  0.50000000  0.65377027  0.20827448  1
  C  C189  1  0.50000000  0.65376649  0.70825906  1
  C  C190  1  0.50000000  0.65367670  0.33319887  1
  C  C191  1  0.50000000  0.65369122  0.83320139  1
  C  C192  1  0.50000000  0.68441355  0.10387778  1
  C  C193  1  0.50000000  0.68440971  0.60386193  1
  C  C194  1  0.50000000  0.68426087  0.47883276  1
  C  C195  1  0.50000000  0.68424563  0.97884103  1
  C  C196  1  0.50000000  0.68447675  0.22889805  1
  C  C197  1  0.50000000  0.68447758  0.72888514  1
  C  C198  1  0.50000000  0.68432945  0.35386333  1
  C  C199  1  0.50000000  0.68434504  0.85386506  1
  C  C200  1  0.50000000  0.62273985  0.02069632  1
  C  C201  1  0.50000000  0.62274766  0.52069167  1
  C  C202  1  0.50000000  0.62276482  0.39562948  1
  C  C203  1  0.50000000  0.62277175  0.89562453  1
  C  C204  1  0.50000000  0.62285042  0.14572636  1
  C  C205  1  0.50000000  0.62284527  0.64571463  1
  C  C206  1  0.50000000  0.62284515  0.27067971  1
  C  C207  1  0.50000000  0.62284715  0.77067354  1
  C  C208  1  0.50000000  0.65363733  0.04156170  1
  C  C209  1  0.50000000  0.65364507  0.54155213  1
  C  C210  1  0.50000000  0.65361975  0.41651312  1
  C  C211  1  0.50000000  0.65362611  0.91651258  1
  C  C212  1  0.50000000  0.65374253  0.16659005  1
  C  C213  1  0.50000000  0.65373736  0.66657766  1
  C  C214  1  0.50000000  0.65374904  0.29151882  1
  C  C215  1  0.50000000  0.65375522  0.79151605  1
  C  C216  1  0.50000000  0.71436365  0.08227773  1
  C  C217  1  0.50000000  0.71436210  0.58227154  1
  C  C218  1  0.50000000  0.71426255  0.45739962  1
  C  C219  1  0.50000000  0.71425060  0.95741872  1
  C  C220  1  0.50000000  0.71447963  0.20741757  1
  C  C221  1  0.50000000  0.71447414  0.70740298  1
  C  C222  1  0.50000000  0.71434482  0.33244319  1
  C  C223  1  0.50000000  0.71436328  0.83245184  1
  C  C224  1  0.50000000  0.68427030  0.02082561  1
  C  C225  1  0.50000000  0.68428313  0.52081801  1
  C  C226  1  0.50000000  0.68428397  0.39585184  1
  C  C227  1  0.50000000  0.68430135  0.89585386  1
  C  C228  1  0.50000000  0.68440797  0.14590493  1
  C  C229  1  0.50000000  0.68439913  0.64588664  1
  C  C230  1  0.50000000  0.68445665  0.27088858  1
  C  C231  1  0.50000000  0.68446273  0.77087797  1
  C  C232  1  0.50000000  0.71429577  0.04220513  1
  C  C233  1  0.50000000  0.71430702  0.54220016  1
  C  C234  1  0.50000000  0.71426409  0.41732337  1
  C  C235  1  0.50000000  0.71427716  0.91733952  1
  C  C236  1  0.50000000  0.71440846  0.16733860  1
  C  C237  1  0.50000000  0.71439916  0.66732435  1
  C  C238  1  0.50000000  0.71444196  0.29237420  1
  C  C239  1  0.50000000  0.71444444  0.79236331  1
  H  H240  1  0.50000000  0.26159184  0.09708917  1
  H  H241  1  0.50000000  0.26160913  0.59712042  1
  H  H242  1  0.50000000  0.26182019  0.47251284  1
  H  H243  1  0.50000000  0.26184950  0.97256317  1
  H  H244  1  0.50000000  0.26151418  0.22234538  1
  H  H245  1  0.50000000  0.26151967  0.72233544  1
  H  H246  1  0.50000000  0.26172744  0.34751100  1
  H  H247  1  0.50000000  0.26170665  0.84749129  1
  H  H248  1  0.50000000  0.26175071  0.02715077  1
  H  H249  1  0.50000000  0.26174159  0.52713906  1
  H  H250  1  0.50000000  0.26179570  0.40228244  1
  H  H251  1  0.50000000  0.26177097  0.90231947  1
  H  H252  1  0.50000000  0.26165503  0.15228950  1
  H  H253  1  0.50000000  0.26167132  0.65225963  1
  H  H254  1  0.50000000  0.26157034  0.27739283  1
  H  H255  1  0.50000000  0.26156294  0.77739965  1
  H  H256  1  0.50000000  0.73840816  0.09708917  1
  H  H257  1  0.50000000  0.73839088  0.59712042  1
  H  H258  1  0.50000000  0.73817982  0.47251284  1
  H  H259  1  0.50000000  0.73815050  0.97256317  1
  H  H260  1  0.50000000  0.73848582  0.22234538  1
  H  H261  1  0.50000000  0.73848033  0.72233544  1
  H  H262  1  0.50000000  0.73827256  0.34751100  1
  H  H263  1  0.50000000  0.73829335  0.84749129  1
  H  H264  1  0.50000000  0.73824930  0.02715077  1
  H  H265  1  0.50000000  0.73825841  0.52713906  1
  H  H266  1  0.50000000  0.73820430  0.40228244  1
  H  H267  1  0.50000000  0.73822904  0.90231947  1
  H  H268  1  0.50000000  0.73834498  0.15228950  1
  H  H269  1  0.50000000  0.73832868  0.65225963  1
  H  H270  1  0.50000000  0.73842967  0.27739283  1
  H  H271  1  0.50000000  0.73843706  0.77739965  1
