# generated using pymatgen
data_H11C34
_symmetry_space_group_name_H-M   'P 1'
_cell_length_a   20.00000000
_cell_length_b   40.19450000
_cell_length_c   35.38911062
_cell_angle_alpha   90.00000000
_cell_angle_beta   90.00000000
_cell_angle_gamma   90.00000000
_symmetry_Int_Tables_number   1
_chemical_formula_structural   H11C34
_chemical_formula_sum   'H44 C136'
_cell_volume   28448.95213943
_cell_formula_units_Z   4
loop_
 _symmetry_equiv_pos_site_id
 _symmetry_equiv_pos_as_xyz
  1  'x, y, z'
loop_
 _atom_site_type_symbol
 _atom_site_label
 _atom_site_symmetry_multiplicity
 _atom_site_fract_x
 _atom_site_fract_y
 _atom_site_fract_z
 _atom_site_occupancy
  C  C0  1  0.50000000  0.28844317  0.58761148  1
  C  C1  1  0.50000000  0.28834099  0.95167703  1
  C  C2  1  0.50000000  0.28907219  0.70870042  1
  C  C3  1  0.50000000  0.28919154  0.83048071  1
  C  C4  1  0.50000000  0.31875380  0.60761907  1
  C  C5  1  0.50000000  0.31815854  0.97170684  1
  C  C6  1  0.50000000  0.31896988  0.72963615  1
  C  C7  1  0.50000000  0.31907701  0.85140668  1
  C  C8  1  0.50000000  0.28822197  0.54842422  1
  C  C9  1  0.50000000  0.28856695  0.91250255  1
  C  C10  1  0.50000000  0.28912325  0.66971035  1
  C  C11  1  0.50000000  0.28910427  0.79150419  1
  C  C12  1  0.50000000  0.34946322  0.58715907  1
  C  C13  1  0.50000000  0.34936605  0.95359415  1
  C  C14  1  0.50000000  0.34961365  0.70943390  1
  C  C15  1  0.50000000  0.34970221  0.83128443  1
  C  C16  1  0.50000000  0.36228825  0.10227906  1
  C  C17  1  0.50000000  0.38045581  0.60797319  1
  C  C18  1  0.50000000  0.37815788  0.48506861  1
  C  C19  1  0.50000000  0.38082071  0.97540481  1
  C  C20  1  0.50000000  0.35397234  0.23016970  1
  C  C21  1  0.50000000  0.38043795  0.72984675  1
  C  C22  1  0.50000000  0.35794670  0.35863574  1
  C  C23  1  0.50000000  0.38056982  0.85169170  1
  C  C24  1  0.50000000  0.31803642  0.52840902  1
  C  C25  1  0.50000000  0.31888705  0.89251749  1
  C  C26  1  0.50000000  0.31897461  0.64874271  1
  C  C27  1  0.50000000  0.31899507  0.77055850  1
  C  C28  1  0.50000000  0.34921970  0.54652040  1
  C  C29  1  0.50000000  0.34961540  0.91296131  1
  C  C30  1  0.50000000  0.34960520  0.66885497  1
  C  C31  1  0.50000000  0.34966429  0.79071152  1
  C  C32  1  0.50000000  0.39356696  0.08371295  1
  C  C33  1  0.50000000  0.41102028  0.58788254  1
  C  C34  1  0.50000000  0.40105380  0.45456637  1
  C  C35  1  0.50000000  0.41184009  0.95329816  1
  C  C36  1  0.50000000  0.38289961  0.20704744  1
  C  C37  1  0.50000000  0.41107095  0.70958281  1
  C  C38  1  0.50000000  0.38434920  0.33187441  1
  C  C39  1  0.50000000  0.41117976  0.83110084  1
  C  C40  1  0.50000000  0.44173771  0.60855067  1
  C  C41  1  0.50000000  0.44278164  0.97059871  1
  C  C42  1  0.50000000  0.44180232  0.72981011  1
  C  C43  1  0.50000000  0.44189611  0.85099950  1
  C  C44  1  0.50000000  0.37839066  0.01494614  1
  C  C45  1  0.50000000  0.38061584  0.52463269  1
  C  C46  1  0.50000000  0.36197130  0.39768264  1
  C  C47  1  0.50000000  0.38063326  0.89215267  1
  C  C48  1  0.50000000  0.35825247  0.14128907  1
  C  C49  1  0.50000000  0.38043983  0.64842097  1
  C  C50  1  0.50000000  0.35381935  0.26938218  1
  C  C51  1  0.50000000  0.38047508  0.77027680  1
  C  C52  1  0.50000000  0.40131760  0.04540809  1
  C  C53  1  0.50000000  0.41156627  0.54678282  1
  C  C54  1  0.50000000  0.39326556  0.41624292  1
  C  C55  1  0.50000000  0.41124114  0.91220087  1
  C  C56  1  0.50000000  0.38470442  0.16800077  1
  C  C57  1  0.50000000  0.41105144  0.66898393  1
  C  C58  1  0.50000000  0.38259596  0.29280581  1
  C  C59  1  0.50000000  0.41114567  0.79051232  1
  C  C60  1  0.50000000  0.47281695  0.58937439  1
  C  C61  1  0.50000000  0.47343910  0.95103306  1
  C  C62  1  0.50000000  0.47262427  0.70970729  1
  C  C63  1  0.50000000  0.47273585  0.83063701  1
  C  C64  1  0.50000000  0.50355885  0.60929166  1
  C  C65  1  0.50000000  0.50365395  0.97066986  1
  C  C66  1  0.50000000  0.50346863  0.72976987  1
  C  C67  1  0.50000000  0.50366438  0.85034118  1
  C  C68  1  0.50000000  0.44246536  0.52947484  1
  C  C69  1  0.50000000  0.44195389  0.89149193  1
  C  C70  1  0.50000000  0.44172653  0.64903454  1
  C  C71  1  0.50000000  0.44185282  0.77023564  1
  C  C72  1  0.50000000  0.47313628  0.54898239  1
  C  C73  1  0.50000000  0.47305998  0.91063697  1
  C  C74  1  0.50000000  0.47257526  0.66937018  1
  C  C75  1  0.50000000  0.47270506  0.79029579  1
  C  C76  1  0.50000000  0.53413935  0.58916212  1
  C  C77  1  0.50000000  0.53442745  0.95157946  1
  C  C78  1  0.50000000  0.53429060  0.70983898  1
  C  C79  1  0.50000000  0.53443248  0.83036990  1
  C  C80  1  0.50000000  0.56497201  0.60899712  1
  C  C81  1  0.50000000  0.56485783  0.97111280  1
  C  C82  1  0.50000000  0.56521944  0.72978247  1
  C  C83  1  0.50000000  0.56521750  0.85052751  1
  C  C84  1  0.50000000  0.50332755  0.52930699  1
  C  C85  1  0.50000000  0.50378842  0.89068924  1
  C  C86  1  0.50000000  0.50348283  0.64963561  1
  C  C87  1  0.50000000  0.50350762  0.77016469  1
  C  C88  1  0.50000000  0.53410438  0.54837532  1
  C  C89  1  0.50000000  0.53438894  0.91078914  1
  C  C90  1  0.50000000  0.53428416  0.66954706  1
  C  C91  1  0.50000000  0.53435086  0.79006312  1
  C  C92  1  0.50000000  0.59557865  0.58870197  1
  C  C93  1  0.50000000  0.59558718  0.95200515  1
  C  C94  1  0.50000000  0.59600042  0.70966934  1
  C  C95  1  0.50000000  0.59606625  0.83063912  1
  C  C96  1  0.50000000  0.62637500  0.60835859  1
  C  C97  1  0.50000000  0.62601499  0.97162818  1
  C  C98  1  0.50000000  0.62672024  0.72966177  1
  C  C99  1  0.50000000  0.62664564  0.85089351  1
  C  C100  1  0.50000000  0.56449830  0.52879507  1
  C  C101  1  0.50000000  0.56518980  0.89090222  1
  C  C102  1  0.50000000  0.56505696  0.64936212  1
  C  C103  1  0.50000000  0.56524330  0.77005614  1
  C  C104  1  0.50000000  0.59525008  0.54783525  1
  C  C105  1  0.50000000  0.59582534  0.91113439  1
  C  C106  1  0.50000000  0.59596045  0.66915774  1
  C  C107  1  0.50000000  0.59605210  0.79011769  1
  C  C108  1  0.50000000  0.65703196  0.58775178  1
  C  C109  1  0.50000000  0.65676083  0.95261940  1
  C  C110  1  0.50000000  0.65758291  0.70927446  1
  C  C111  1  0.50000000  0.65764717  0.83093618  1
  C  C112  1  0.50000000  0.68815129  0.60717495  1
  C  C113  1  0.50000000  0.68732483  0.97276494  1
  C  C114  1  0.50000000  0.68829995  0.72933186  1
  C  C115  1  0.50000000  0.68834105  0.85124750  1
  C  C116  1  0.50000000  0.62560362  0.52807112  1
  C  C117  1  0.50000000  0.62656535  0.89137307  1
  C  C118  1  0.50000000  0.62651922  0.64883954  1
  C  C119  1  0.50000000  0.62674574  0.77006332  1
  C  C120  1  0.50000000  0.65640472  0.54698551  1
  C  C121  1  0.50000000  0.65727074  0.91187891  1
  C  C122  1  0.50000000  0.65754863  0.66873438  1
  C  C123  1  0.50000000  0.65763598  0.79039464  1
  C  C124  1  0.50000000  0.71767711  0.58570901  1
  C  C125  1  0.50000000  0.71734777  0.95343152  1
  C  C126  1  0.50000000  0.71811089  0.70828695  1
  C  C127  1  0.50000000  0.71815833  0.83032268  1
  C  C128  1  0.50000000  0.68694791  0.52680138  1
  C  C129  1  0.50000000  0.68834877  0.89240830  1
  C  C130  1  0.50000000  0.68820804  0.64835392  1
  C  C131  1  0.50000000  0.68832706  0.77028423  1
  C  C132  1  0.50000000  0.71699860  0.54606814  1
  C  C133  1  0.50000000  0.71791799  0.91378692  1
  C  C134  1  0.50000000  0.71804723  0.66924075  1
  C  C135  1  0.50000000  0.71816216  0.79128107  1
  H  H136  1  0.50000000  0.26470340  0.60262690  1
  H  H137  1  0.50000000  0.26467638  0.96702441  1
  H  H138  1  0.50000000  0.26500357  0.72303228  1
  H  H139  1  0.50000000  0.26518052  0.84494219  1
  H  H140  1  0.50000000  0.26456781  0.53306471  1
  H  H141  1  0.50000000  0.26482322  0.89748887  1
  H  H142  1  0.50000000  0.26508852  0.65530421  1
  H  H143  1  0.50000000  0.26506103  0.77711618  1
  H  H144  1  0.50000000  0.74191215  0.59974368  1
  H  H145  1  0.50000000  0.74095113  0.96899225  1
  H  H146  1  0.50000000  0.74214347  0.72270140  1
  H  H147  1  0.50000000  0.74215152  0.84484937  1
  H  H148  1  0.50000000  0.74053612  0.53039087  1
  H  H149  1  0.50000000  0.74210110  0.89963825  1
  H  H150  1  0.50000000  0.74200928  0.65465238  1
  H  H151  1  0.50000000  0.74217093  0.77683344  1
  H  H152  1  0.50000000  0.31631701  0.00249079  1
  H  H153  1  0.50000000  0.33952074  0.08513622  1
  H  H154  1  0.50000000  0.35261607  0.47451831  1
  H  H155  1  0.50000000  0.32968400  0.21593939  1
  H  H156  1  0.50000000  0.33234455  0.34788730  1
  H  H157  1  0.50000000  0.31627577  0.49763581  1
  H  H158  1  0.50000000  0.41543551  0.10226716  1
  H  H159  1  0.50000000  0.42782220  0.45940669  1
  H  H160  1  0.50000000  0.40698533  0.22169599  1
  H  H161  1  0.50000000  0.40969808  0.34338260  1
  H  H162  1  0.50000000  0.44487454  0.00104968  1
  H  H163  1  0.50000000  0.35284363  0.02547243  1
  H  H164  1  0.50000000  0.33921947  0.41489743  1
  H  H165  1  0.50000000  0.33260147  0.15196131  1
  H  H166  1  0.50000000  0.32935858  0.28319768  1
  H  H167  1  0.50000000  0.42809443  0.04064149  1
  H  H168  1  0.50000000  0.41507048  0.39758722  1
  H  H169  1  0.50000000  0.41007738  0.15654537  1
  H  H170  1  0.50000000  0.40680108  0.27839145  1
  H  H171  1  0.50000000  0.50348404  0.00165107  1
  H  H172  1  0.50000000  0.44454562  0.49903481  1
  H  H173  1  0.50000000  0.56473945  0.00209538  1
  H  H174  1  0.50000000  0.50321426  0.49832619  1
  H  H175  1  0.50000000  0.62579349  0.00262647  1
  H  H176  1  0.50000000  0.56437539  0.49781715  1
  H  H177  1  0.50000000  0.68661085  0.00374214  1
  H  H178  1  0.50000000  0.62518507  0.49706546  1
  H  H179  1  0.50000000  0.68627409  0.49583278  1
