# generated using pymatgen
data_H11C34
_symmetry_space_group_name_H-M   'P 1'
_cell_length_a   20.00000000
_cell_length_b   40.19450000
_cell_length_c   35.47156745
_cell_angle_alpha   90.00000000
_cell_angle_beta   90.00000000
_cell_angle_gamma   90.00000000
_symmetry_Int_Tables_number   1
_chemical_formula_structural   H11C34
_chemical_formula_sum   'H44 C136'
_cell_volume   28515.23835953
_cell_formula_units_Z   4
loop_
 _symmetry_equiv_pos_site_id
 _symmetry_equiv_pos_as_xyz
  1  'x, y, z'
loop_
 _atom_site_type_symbol
 _atom_site_label
 _atom_site_symmetry_multiplicity
 _atom_site_fract_x
 _atom_site_fract_y
 _atom_site_fract_z
 _atom_site_occupancy
  C  C0  1  0.50000000  0.28970881  0.58629695  1
  C  C1  1  0.50000000  0.28968440  0.95218093  1
  C  C2  1  0.50000000  0.28973935  0.70840147  1
  C  C3  1  0.50000000  0.28981073  0.83043299  1
  C  C4  1  0.50000000  0.29697800  0.10202083  1
  C  C5  1  0.50000000  0.31995852  0.60773650  1
  C  C6  1  0.50000000  0.31413293  0.48592931  1
  C  C7  1  0.50000000  0.31940846  0.97464833  1
  C  C8  1  0.50000000  0.28891339  0.23049515  1
  C  C9  1  0.50000000  0.31964629  0.72957222  1
  C  C10  1  0.50000000  0.29328959  0.35866800  1
  C  C11  1  0.50000000  0.31981808  0.85143147  1
  C  C12  1  0.50000000  0.28971520  0.54771603  1
  C  C13  1  0.50000000  0.28971061  0.91358919  1
  C  C14  1  0.50000000  0.28977251  0.66952689  1
  C  C15  1  0.50000000  0.28973168  0.79156638  1
  C  C16  1  0.50000000  0.32813903  0.08346320  1
  C  C17  1  0.50000000  0.35040286  0.58778518  1
  C  C18  1  0.50000000  0.33599380  0.45485703  1
  C  C19  1  0.50000000  0.35091766  0.95335693  1
  C  C20  1  0.50000000  0.31750615  0.20699669  1
  C  C21  1  0.50000000  0.35035275  0.70945127  1
  C  C22  1  0.50000000  0.31959485  0.33198693  1
  C  C23  1  0.50000000  0.35044812  0.83089815  1
  C  C24  1  0.50000000  0.38123232  0.60849307  1
  C  C25  1  0.50000000  0.38182441  0.97070840  1
  C  C26  1  0.50000000  0.38120555  0.72976402  1
  C  C27  1  0.50000000  0.38121843  0.85090589  1
  C  C28  1  0.50000000  0.31409716  0.01403086  1
  C  C29  1  0.50000000  0.31945121  0.52529225  1
  C  C30  1  0.50000000  0.29716467  0.39775913  1
  C  C31  1  0.50000000  0.31996587  0.89214167  1
  C  C32  1  0.50000000  0.29292237  0.14109289  1
  C  C33  1  0.50000000  0.31977576  0.64845483  1
  C  C34  1  0.50000000  0.28908413  0.26969054  1
  C  C35  1  0.50000000  0.31963959  0.77034739  1
  C  C36  1  0.50000000  0.33596364  0.04511046  1
  C  C37  1  0.50000000  0.35094116  0.54655419  1
  C  C38  1  0.50000000  0.32823847  0.41649875  1
  C  C39  1  0.50000000  0.35039012  0.91210818  1
  C  C40  1  0.50000000  0.31914905  0.16790682  1
  C  C41  1  0.50000000  0.35041843  0.66896102  1
  C  C42  1  0.50000000  0.31784327  0.29290601  1
  C  C43  1  0.50000000  0.35036660  0.79042408  1
  C  C44  1  0.50000000  0.41216225  0.58924523  1
  C  C45  1  0.50000000  0.41251417  0.95099590  1
  C  C46  1  0.50000000  0.41193681  0.70967021  1
  C  C47  1  0.50000000  0.41194524  0.83054593  1
  C  C48  1  0.50000000  0.44286693  0.60925296  1
  C  C49  1  0.50000000  0.44279864  0.97034570  1
  C  C50  1  0.50000000  0.44270345  0.72975715  1
  C  C51  1  0.50000000  0.44277035  0.85024676  1
  C  C52  1  0.50000000  0.38180687  0.52913353  1
  C  C53  1  0.50000000  0.38121611  0.89134400  1
  C  C54  1  0.50000000  0.38120966  0.64893133  1
  C  C55  1  0.50000000  0.38120287  0.77006390  1
  C  C56  1  0.50000000  0.41251142  0.54877398  1
  C  C57  1  0.50000000  0.41215989  0.91054020  1
  C  C58  1  0.50000000  0.41194338  0.66926220  1
  C  C59  1  0.50000000  0.41193418  0.79013410  1
  C  C60  1  0.50000000  0.47349772  0.58924614  1
  C  C61  1  0.50000000  0.47359861  0.95115278  1
  C  C62  1  0.50000000  0.47354477  0.70976946  1
  C  C63  1  0.50000000  0.47355698  0.83018228  1
  C  C64  1  0.50000000  0.50426412  0.60917336  1
  C  C65  1  0.50000000  0.50406022  0.97051285  1
  C  C66  1  0.50000000  0.50436148  0.72974231  1
  C  C67  1  0.50000000  0.50429216  0.85019169  1
  C  C68  1  0.50000000  0.44277724  0.52937122  1
  C  C69  1  0.50000000  0.44287758  0.89051765  1
  C  C70  1  0.50000000  0.44275789  0.64953088  1
  C  C71  1  0.50000000  0.44269534  0.77002497  1
  C  C72  1  0.50000000  0.47357699  0.54855410  1
  C  C73  1  0.50000000  0.47352592  0.91048201  1
  C  C74  1  0.50000000  0.47355293  0.66957581  1
  C  C75  1  0.50000000  0.47355015  0.78999055  1
  C  C76  1  0.50000000  0.53484230  0.58914618  1
  C  C77  1  0.50000000  0.53477204  0.95134283  1
  C  C78  1  0.50000000  0.53507822  0.70973614  1
  C  C79  1  0.50000000  0.53505266  0.83026721  1
  C  C80  1  0.50000000  0.56564664  0.60902367  1
  C  C81  1  0.50000000  0.56528963  0.97075116  1
  C  C82  1  0.50000000  0.56592082  0.72975691  1
  C  C83  1  0.50000000  0.56578112  0.85040048  1
  C  C84  1  0.50000000  0.50404382  0.52920102  1
  C  C85  1  0.50000000  0.50429619  0.89055467  1
  C  C86  1  0.50000000  0.50427856  0.64954140  1
  C  C87  1  0.50000000  0.50436348  0.77001371  1
  C  C88  1  0.50000000  0.53475793  0.54838270  1
  C  C89  1  0.50000000  0.53487798  0.91058604  1
  C  C90  1  0.50000000  0.53504479  0.66946834  1
  C  C91  1  0.50000000  0.53508571  0.79000266  1
  C  C92  1  0.50000000  0.59628450  0.58885615  1
  C  C93  1  0.50000000  0.59603019  0.95167627  1
  C  C94  1  0.50000000  0.59666258  0.70969237  1
  C  C95  1  0.50000000  0.59662173  0.83051668  1
  C  C96  1  0.50000000  0.62698985  0.60865858  1
  C  C97  1  0.50000000  0.62649436  0.97121168  1
  C  C98  1  0.50000000  0.62731403  0.72974391  1
  C  C99  1  0.50000000  0.62717469  0.85072076  1
  C  C100  1  0.50000000  0.56527713  0.52896617  1
  C  C101  1  0.50000000  0.56567522  0.89070578  1
  C  C102  1  0.50000000  0.56577498  0.64933851  1
  C  C103  1  0.50000000  0.56592568  0.76998250  1
  C  C104  1  0.50000000  0.59603446  0.54803657  1
  C  C105  1  0.50000000  0.59631701  0.91087215  1
  C  C106  1  0.50000000  0.59661702  0.66924262  1
  C  C107  1  0.50000000  0.59666375  0.79007106  1
  C  C108  1  0.50000000  0.65771574  0.58827975  1
  C  C109  1  0.50000000  0.65723976  0.95221961  1
  C  C110  1  0.50000000  0.65817275  0.70945399  1
  C  C111  1  0.50000000  0.65817871  0.83080197  1
  C  C112  1  0.50000000  0.68875866  0.60775700  1
  C  C113  1  0.50000000  0.68782319  0.97228299  1
  C  C114  1  0.50000000  0.68885682  0.72949223  1
  C  C115  1  0.50000000  0.68885381  0.85105999  1
  C  C116  1  0.50000000  0.62654894  0.52856222  1
  C  C117  1  0.50000000  0.62703873  0.89112141  1
  C  C118  1  0.50000000  0.62716305  0.64905539  1
  C  C119  1  0.50000000  0.62733009  0.77005536  1
  C  C120  1  0.50000000  0.65725893  0.54765140  1
  C  C121  1  0.50000000  0.65774629  0.91157181  1
  C  C122  1  0.50000000  0.65815384  0.66901899  1
  C  C123  1  0.50000000  0.65818967  0.79037223  1
  C  C124  1  0.50000000  0.71836630  0.58653809  1
  C  C125  1  0.50000000  0.71783730  0.95299191  1
  C  C126  1  0.50000000  0.71869467  0.70858928  1
  C  C127  1  0.50000000  0.71869643  0.83021634  1
  C  C128  1  0.50000000  0.68789001  0.52767601  1
  C  C129  1  0.50000000  0.68880870  0.89213197  1
  C  C130  1  0.50000000  0.68883126  0.64880673  1
  C  C131  1  0.50000000  0.68888171  0.77033790  1
  C  C132  1  0.50000000  0.71788598  0.54702203  1
  C  C133  1  0.50000000  0.71837288  0.91345637  1
  C  C134  1  0.50000000  0.71867364  0.66964410  1
  C  C135  1  0.50000000  0.71872411  0.79126893  1
  H  H136  1  0.50000000  0.26569306  0.60076915  1
  H  H137  1  0.50000000  0.26573231  0.96702370  1
  H  H138  1  0.50000000  0.26570087  0.72282209  1
  H  H139  1  0.50000000  0.26584334  0.84499313  1
  H  H140  1  0.50000000  0.26583348  0.53274978  1
  H  H141  1  0.50000000  0.26567358  0.89916735  1
  H  H142  1  0.50000000  0.26573501  0.65510349  1
  H  H143  1  0.50000000  0.26564327  0.77724521  1
  H  H144  1  0.50000000  0.74245578  0.60081367  1
  H  H145  1  0.50000000  0.74141899  0.96854279  1
  H  H146  1  0.50000000  0.74263545  0.72313697  1
  H  H147  1  0.50000000  0.74262167  0.84484019  1
  H  H148  1  0.50000000  0.74148839  0.53152210  1
  H  H149  1  0.50000000  0.74253926  0.89934989  1
  H  H150  1  0.50000000  0.74264602  0.65513636  1
  H  H151  1  0.50000000  0.74269158  0.77676324  1
  H  H152  1  0.50000000  0.27417010  0.08493608  1
  H  H153  1  0.50000000  0.28756810  0.47848523  1
  H  H154  1  0.50000000  0.26440362  0.21681816  1
  H  H155  1  0.50000000  0.26770629  0.34782288  1
  H  H156  1  0.50000000  0.35005249  0.10193071  1
  H  H157  1  0.50000000  0.36277370  0.45979656  1
  H  H158  1  0.50000000  0.34177132  0.22126622  1
  H  H159  1  0.50000000  0.34497682  0.34337153  1
  H  H160  1  0.50000000  0.38369214  0.00122983  1
  H  H161  1  0.50000000  0.28753380  0.02151624  1
  H  H162  1  0.50000000  0.27425922  0.41465065  1
  H  H163  1  0.50000000  0.26728147  0.15178199  1
  H  H164  1  0.50000000  0.26470370  0.28366308  1
  H  H165  1  0.50000000  0.36275056  0.04019409  1
  H  H166  1  0.50000000  0.35020875  0.39813552  1
  H  H167  1  0.50000000  0.34453998  0.15656047  1
  H  H168  1  0.50000000  0.34202694  0.27848397  1
  H  H169  1  0.50000000  0.44277349  0.00125367  1
  H  H170  1  0.50000000  0.38360353  0.49861379  1
  H  H171  1  0.50000000  0.50388588  0.00141142  1
  H  H172  1  0.50000000  0.44276823  0.49845504  1
  H  H173  1  0.50000000  0.56514972  0.00165312  1
  H  H174  1  0.50000000  0.50389620  0.49829559  1
  H  H175  1  0.50000000  0.62636854  0.00213381  1
  H  H176  1  0.50000000  0.56503246  0.49805857  1
  H  H177  1  0.50000000  0.68721077  0.00318785  1
  H  H178  1  0.50000000  0.62654386  0.49763277  1
  H  H179  1  0.50000000  0.68733160  0.49677196  1
