# generated using pymatgen
data_H11C34
_symmetry_space_group_name_H-M   'P 1'
_cell_length_a   20.00000000
_cell_length_b   40.19450000
_cell_length_c   35.64920367
_cell_angle_alpha   90.00000000
_cell_angle_beta   90.00000000
_cell_angle_gamma   90.00000000
_symmetry_Int_Tables_number   1
_chemical_formula_structural   H11C34
_chemical_formula_sum   'H44 C136'
_cell_volume   28658.03834080
_cell_formula_units_Z   4
loop_
 _symmetry_equiv_pos_site_id
 _symmetry_equiv_pos_as_xyz
  1  'x, y, z'
loop_
 _atom_site_type_symbol
 _atom_site_label
 _atom_site_symmetry_multiplicity
 _atom_site_fract_x
 _atom_site_fract_y
 _atom_site_fract_z
 _atom_site_occupancy
  C  C0  1  0.50000000  0.28320573  0.58997599  1
  C  C1  1  0.50000000  0.28228252  0.94870372  1
  C  C2  1  0.50000000  0.28441973  0.70907637  1
  C  C3  1  0.50000000  0.28434414  0.82926473  1
  C  C4  1  0.50000000  0.31388574  0.60901318  1
  C  C5  1  0.50000000  0.31193459  0.96894859  1
  C  C6  1  0.50000000  0.31439178  0.72959956  1
  C  C7  1  0.50000000  0.31415891  0.85013913  1
  C  C8  1  0.50000000  0.28236134  0.55123029  1
  C  C9  1  0.50000000  0.28313565  0.90994679  1
  C  C10  1  0.50000000  0.28440312  0.67046468  1
  C  C11  1  0.50000000  0.28439918  0.79062704  1
  C  C12  1  0.50000000  0.35768426  0.08188169  1
  C  C13  1  0.50000000  0.34436867  0.58830947  1
  C  C14  1  0.50000000  0.35293623  0.45686813  1
  C  C15  1  0.50000000  0.34354301  0.95196253  1
  C  C16  1  0.50000000  0.35768909  0.20634927  1
  C  C17  1  0.50000000  0.34498070  0.70955690  1
  C  C18  1  0.50000000  0.35824247  0.33280892  1
  C  C19  1  0.50000000  0.34481947  0.83043435  1
  C  C20  1  0.50000000  0.38669023  0.10451796  1
  C  C21  1  0.50000000  0.37545995  0.60870613  1
  C  C22  1  0.50000000  0.37679533  0.48629153  1
  C  C23  1  0.50000000  0.37455985  0.97416294  1
  C  C24  1  0.50000000  0.38571396  0.23065672  1
  C  C25  1  0.50000000  0.37572252  0.72982004  1
  C  C26  1  0.50000000  0.38670779  0.35658396  1
  C  C27  1  0.50000000  0.37552337  0.85091068  1
  C  C28  1  0.50000000  0.31197058  0.53092084  1
  C  C29  1  0.50000000  0.31380328  0.89083109  1
  C  C30  1  0.50000000  0.31425205  0.64967037  1
  C  C31  1  0.50000000  0.31437122  0.77012379  1
  C  C32  1  0.50000000  0.35299056  0.04313916  1
  C  C33  1  0.50000000  0.34359184  0.54787390  1
  C  C34  1  0.50000000  0.35766670  0.41815781  1
  C  C35  1  0.50000000  0.34430804  0.91152099  1
  C  C36  1  0.50000000  0.35813740  0.16741801  1
  C  C37  1  0.50000000  0.34490437  0.66935290  1
  C  C38  1  0.50000000  0.35766663  0.29388382  1
  C  C39  1  0.50000000  0.34491926  0.79021049  1
  C  C40  1  0.50000000  0.40590634  0.58850594  1
  C  C41  1  0.50000000  0.40605952  0.95217758  1
  C  C42  1  0.50000000  0.40626492  0.70957681  1
  C  C43  1  0.50000000  0.40614621  0.83053802  1
  C  C44  1  0.50000000  0.43669052  0.60903200  1
  C  C45  1  0.50000000  0.43697149  0.96959443  1
  C  C46  1  0.50000000  0.43690143  0.72974843  1
  C  C47  1  0.50000000  0.43672431  0.85045406  1
  C  C48  1  0.50000000  0.37680890  0.01363060  1
  C  C49  1  0.50000000  0.37461749  0.52573218  1
  C  C50  1  0.50000000  0.38673041  0.39562491  1
  C  C51  1  0.50000000  0.37539269  0.89109188  1
  C  C52  1  0.50000000  0.38658066  0.14357381  1
  C  C53  1  0.50000000  0.37560090  0.64887140  1
  C  C54  1  0.50000000  0.38567314  0.26956489  1
  C  C55  1  0.50000000  0.37567605  0.76995813  1
  C  C56  1  0.50000000  0.40613611  0.54766055  1
  C  C57  1  0.50000000  0.40584179  0.91130435  1
  C  C58  1  0.50000000  0.40622048  0.66923050  1
  C  C59  1  0.50000000  0.40620590  0.79019727  1
  C  C60  1  0.50000000  0.46766387  0.58985626  1
  C  C61  1  0.50000000  0.46771650  0.95012300  1
  C  C62  1  0.50000000  0.46763753  0.70969536  1
  C  C63  1  0.50000000  0.46751079  0.83017958  1
  C  C64  1  0.50000000  0.49842846  0.60975840  1
  C  C65  1  0.50000000  0.49805880  0.96943164  1
  C  C66  1  0.50000000  0.49837884  0.72974694  1
  C  C67  1  0.50000000  0.49833791  0.84984206  1
  C  C68  1  0.50000000  0.43703918  0.53020469  1
  C  C69  1  0.50000000  0.43662577  0.89073699  1
  C  C70  1  0.50000000  0.43679951  0.64929827  1
  C  C71  1  0.50000000  0.43684955  0.76998352  1
  C  C72  1  0.50000000  0.46781130  0.54964739  1
  C  C73  1  0.50000000  0.46758443  0.90990645  1
  C  C74  1  0.50000000  0.46758600  0.66954942  1
  C  C75  1  0.50000000  0.46758519  0.79002738  1
  C  C76  1  0.50000000  0.52903111  0.58987551  1
  C  C77  1  0.50000000  0.52886234  0.95037793  1
  C  C78  1  0.50000000  0.52913838  0.70988541  1
  C  C79  1  0.50000000  0.52907598  0.82989187  1
  C  C80  1  0.50000000  0.55984799  0.60969957  1
  C  C81  1  0.50000000  0.55936659  0.96966312  1
  C  C82  1  0.50000000  0.55996977  0.72983256  1
  C  C83  1  0.50000000  0.55981616  0.84992489  1
  C  C84  1  0.50000000  0.49815954  0.53032106  1
  C  C85  1  0.50000000  0.49833517  0.88998265  1
  C  C86  1  0.50000000  0.49841835  0.64988700  1
  C  C87  1  0.50000000  0.49834251  0.76994209  1
  C  C88  1  0.50000000  0.52896463  0.54936495  1
  C  C89  1  0.50000000  0.52893218  0.90986880  1
  C  C90  1  0.50000000  0.52915606  0.66980971  1
  C  C91  1  0.50000000  0.52909659  0.78980423  1
  C  C92  1  0.50000000  0.59050992  0.58968344  1
  C  C93  1  0.50000000  0.59014114  0.95066985  1
  C  C94  1  0.50000000  0.59073145  0.70987095  1
  C  C95  1  0.50000000  0.59065624  0.83012195  1
  C  C96  1  0.50000000  0.62125768  0.60936397  1
  C  C97  1  0.50000000  0.62062095  0.97008010  1
  C  C98  1  0.50000000  0.62140150  0.72982889  1
  C  C99  1  0.50000000  0.62122293  0.85022430  1
  C  C100  1  0.50000000  0.55948204  0.53009143  1
  C  C101  1  0.50000000  0.55974183  0.89004570  1
  C  C102  1  0.50000000  0.55991256  0.64980035  1
  C  C103  1  0.50000000  0.55994850  0.76986904  1
  C  C104  1  0.50000000  0.59025074  0.54910157  1
  C  C105  1  0.50000000  0.59039598  0.91008101  1
  C  C106  1  0.50000000  0.59074573  0.66961480  1
  C  C107  1  0.50000000  0.59069369  0.78985875  1
  C  C108  1  0.50000000  0.65198482  0.58905780  1
  C  C109  1  0.50000000  0.65138914  0.95120987  1
  C  C110  1  0.50000000  0.65229726  0.70965620  1
  C  C111  1  0.50000000  0.65221850  0.83040092  1
  C  C112  1  0.50000000  0.68302610  0.60847841  1
  C  C113  1  0.50000000  0.68203963  0.97107646  1
  C  C114  1  0.50000000  0.68300909  0.72962188  1
  C  C115  1  0.50000000  0.68287959  0.85057144  1
  C  C116  1  0.50000000  0.62075010  0.52972147  1
  C  C117  1  0.50000000  0.62114078  0.89041673  1
  C  C118  1  0.50000000  0.62133528  0.64955727  1
  C  C119  1  0.50000000  0.62138815  0.76994517  1
  C  C120  1  0.50000000  0.65150513  0.54860597  1
  C  C121  1  0.50000000  0.65185977  0.91076415  1
  C  C122  1  0.50000000  0.65232017  0.66942556  1
  C  C123  1  0.50000000  0.65225749  0.79016115  1
  C  C124  1  0.50000000  0.71261936  0.58734790  1
  C  C125  1  0.50000000  0.71202246  0.95181930  1
  C  C126  1  0.50000000  0.71289236  0.70884662  1
  C  C127  1  0.50000000  0.71272221  0.82985897  1
  C  C128  1  0.50000000  0.68212644  0.52870381  1
  C  C129  1  0.50000000  0.68291820  0.89140386  1
  C  C130  1  0.50000000  0.68302643  0.64933520  1
  C  C131  1  0.50000000  0.68297344  0.77024900  1
  C  C132  1  0.50000000  0.71207851  0.54801102  1
  C  C133  1  0.50000000  0.71256102  0.91247966  1
  C  C134  1  0.50000000  0.71287750  0.67007440  1
  C  C135  1  0.50000000  0.71279695  0.79109753  1
  H  H136  1  0.50000000  0.25986259  0.60560064  1
  H  H137  1  0.50000000  0.25839483  0.96356685  1
  H  H138  1  0.50000000  0.26053097  0.72365721  1
  H  H139  1  0.50000000  0.26025921  0.84335209  1
  H  H140  1  0.50000000  0.25845995  0.53643976  1
  H  H141  1  0.50000000  0.25979862  0.89431554  1
  H  H142  1  0.50000000  0.26040033  0.65618758  1
  H  H143  1  0.50000000  0.26048812  0.77614580  1
  H  H144  1  0.50000000  0.73675892  0.60147471  1
  H  H145  1  0.50000000  0.73554476  0.96737250  1
  H  H146  1  0.50000000  0.73682082  0.72341438  1
  H  H147  1  0.50000000  0.73659880  0.84452914  1
  H  H148  1  0.50000000  0.73564183  0.53257084  1
  H  H149  1  0.50000000  0.73670085  0.89832125  1
  H  H150  1  0.50000000  0.73680947  0.65551167  1
  H  H151  1  0.50000000  0.73679968  0.77670262  1
  H  H152  1  0.50000000  0.30962934  -0.00085158  1
  H  H153  1  0.50000000  0.33414029  0.09757267  1
  H  H154  1  0.50000000  0.32650871  0.46332902  1
  H  H155  1  0.50000000  0.33297490  0.21951203  1
  H  H156  1  0.50000000  0.33374595  0.34641291  1
  H  H157  1  0.50000000  0.41122045  0.09088238  1
  H  H158  1  0.50000000  0.40219367  0.47518894  1
  H  H159  1  0.50000000  0.41033352  0.21735457  1
  H  H160  1  0.50000000  0.41122126  0.34302344  1
  H  H161  1  0.50000000  0.30956679  0.50073971  1
  H  H162  1  0.50000000  0.32657807  0.03658297  1
  H  H163  1  0.50000000  0.33407896  0.40257570  1
  H  H164  1  0.50000000  0.33362001  0.15383705  1
  H  H165  1  0.50000000  0.33288193  0.28090527  1
  H  H166  1  0.50000000  0.43895995  0.00014840  1
  H  H167  1  0.50000000  0.40226093  0.02457696  1
  H  H168  1  0.50000000  0.41121624  0.40935705  1
  H  H169  1  0.50000000  0.41109187  0.15715507  1
  H  H170  1  0.50000000  0.41026408  0.28291886  1
  H  H171  1  0.50000000  0.49790579  0.00017683  1
  H  H172  1  0.50000000  0.43897911  0.49964484  1
  H  H173  1  0.50000000  0.55916099  0.00040711  1
  H  H174  1  0.50000000  0.49801013  0.49957162  1
  H  H175  1  0.50000000  0.62040784  0.00082197  1
  H  H176  1  0.50000000  0.55931511  0.49934795  1
  H  H177  1  0.50000000  0.68164295  0.00182653  1
  H  H178  1  0.50000000  0.62064775  0.49897733  1
  H  H179  1  0.50000000  0.68171717  0.49794377  1
