# generated using pymatgen
data_H11C34
_symmetry_space_group_name_H-M   'P 1'
_cell_length_a   20.00000000
_cell_length_b   40.19450000
_cell_length_c   35.35371845
_cell_angle_alpha   90.00000000
_cell_angle_beta   90.00000000
_cell_angle_gamma   90.00000000
_symmetry_Int_Tables_number   1
_chemical_formula_structural   H11C34
_chemical_formula_sum   'H44 C136'
_cell_volume   28420.50072385
_cell_formula_units_Z   4
loop_
 _symmetry_equiv_pos_site_id
 _symmetry_equiv_pos_as_xyz
  1  'x, y, z'
loop_
 _atom_site_type_symbol
 _atom_site_label
 _atom_site_symmetry_multiplicity
 _atom_site_fract_x
 _atom_site_fract_y
 _atom_site_fract_z
 _atom_site_occupancy
  C  C0  1  0.50000000  0.28866850  0.58656996  1
  C  C1  1  0.50000000  0.28904392  0.95305999  1
  C  C2  1  0.50000000  0.28894981  0.70879127  1
  C  C3  1  0.50000000  0.28886559  0.83015531  1
  C  C4  1  0.50000000  0.31831344  0.60778706  1
  C  C5  1  0.50000000  0.31905688  0.97241537  1
  C  C6  1  0.50000000  0.31891157  0.72947916  1
  C  C7  1  0.50000000  0.31861653  0.85109122  1
  C  C8  1  0.50000000  0.28890499  0.54694587  1
  C  C9  1  0.50000000  0.28873021  0.91342701  1
  C  C10  1  0.50000000  0.28883988  0.66973749  1
  C  C11  1  0.50000000  0.28896831  0.79111722  1
  C  C12  1  0.50000000  0.34929316  0.58816870  1
  C  C13  1  0.50000000  0.34937088  0.95211337  1
  C  C14  1  0.50000000  0.34958075  0.70928563  1
  C  C15  1  0.50000000  0.34950201  0.83120014  1
  C  C16  1  0.50000000  0.38043038  0.60780298  1
  C  C17  1  0.50000000  0.38000261  0.97147243  1
  C  C18  1  0.50000000  0.38042110  0.72964582  1
  C  C19  1  0.50000000  0.38044946  0.85144077  1
  C  C20  1  0.50000000  0.31893250  0.52757704  1
  C  C21  1  0.50000000  0.31833462  0.89212956  1
  C  C22  1  0.50000000  0.31860844  0.64881966  1
  C  C23  1  0.50000000  0.31891478  0.77039769  1
  C  C24  1  0.50000000  0.34930642  0.54778757  1
  C  C25  1  0.50000000  0.34931256  0.91173385  1
  C  C26  1  0.50000000  0.34949754  0.66868754  1
  C  C27  1  0.50000000  0.34958598  0.79059112  1
  C  C28  1  0.50000000  0.41101461  0.58732967  1
  C  C29  1  0.50000000  0.41077532  0.95361334  1
  C  C30  1  0.50000000  0.41103308  0.70941895  1
  C  C31  1  0.50000000  0.41099334  0.83120493  1
  C  C32  1  0.50000000  0.42410037  0.10303221  1
  C  C33  1  0.50000000  0.44177061  0.60782329  1
  C  C34  1  0.50000000  0.43975416  0.48493126  1
  C  C35  1  0.50000000  0.44210111  0.97552670  1
  C  C36  1  0.50000000  0.41656466  0.23059020  1
  C  C37  1  0.50000000  0.44174346  0.72968778  1
  C  C38  1  0.50000000  0.42087069  0.35809019  1
  C  C39  1  0.50000000  0.44175270  0.85152328  1
  C  C40  1  0.50000000  0.37997708  0.52844838  1
  C  C41  1  0.50000000  0.38043649  0.89206825  1
  C  C42  1  0.50000000  0.38044738  0.64845342  1
  C  C43  1  0.50000000  0.38042073  0.77021922  1
  C  C44  1  0.50000000  0.41072280  0.54635104  1
  C  C45  1  0.50000000  0.41103854  0.91258586  1
  C  C46  1  0.50000000  0.41098437  0.66868235  1
  C  C47  1  0.50000000  0.41103512  0.79046338  1
  C  C48  1  0.50000000  0.45516055  0.08397950  1
  C  C49  1  0.50000000  0.47246488  0.58764810  1
  C  C50  1  0.50000000  0.46284585  0.45461719  1
  C  C51  1  0.50000000  0.47301956  0.95337444  1
  C  C52  1  0.50000000  0.44549093  0.20746433  1
  C  C53  1  0.50000000  0.47248262  0.70940277  1
  C  C54  1  0.50000000  0.44752050  0.33174058  1
  C  C55  1  0.50000000  0.47245663  0.83099114  1
  C  C56  1  0.50000000  0.50311909  0.60829153  1
  C  C57  1  0.50000000  0.50388842  0.97078820  1
  C  C58  1  0.50000000  0.50319668  0.72964742  1
  C  C59  1  0.50000000  0.50315109  0.85099068  1
  C  C60  1  0.50000000  0.43967134  0.01508807  1
  C  C61  1  0.50000000  0.44209244  0.52447944  1
  C  C62  1  0.50000000  0.42455986  0.39713589  1
  C  C63  1  0.50000000  0.44179744  0.89209731  1
  C  C64  1  0.50000000  0.42046246  0.14210939  1
  C  C65  1  0.50000000  0.44173681  0.64836234  1
  C  C66  1  0.50000000  0.41667339  0.26975534  1
  C  C67  1  0.50000000  0.44174293  0.77019306  1
  C  C68  1  0.50000000  0.46261902  0.04555218  1
  C  C69  1  0.50000000  0.47300417  0.54662966  1
  C  C70  1  0.50000000  0.45560524  0.41616299  1
  C  C71  1  0.50000000  0.47248248  0.91233061  1
  C  C72  1  0.50000000  0.44716722  0.16840898  1
  C  C73  1  0.50000000  0.47244139  0.66888354  1
  C  C74  1  0.50000000  0.44569090  0.29269311  1
  C  C75  1  0.50000000  0.47248678  0.79046775  1
  C  C76  1  0.50000000  0.53416791  0.58907092  1
  C  C77  1  0.50000000  0.53445426  0.95123795  1
  C  C78  1  0.50000000  0.53395318  0.70955036  1
  C  C79  1  0.50000000  0.53394956  0.83070856  1
  C  C80  1  0.50000000  0.56490527  0.60894944  1
  C  C81  1  0.50000000  0.56456312  0.97103035  1
  C  C82  1  0.50000000  0.56482350  0.72969023  1
  C  C83  1  0.50000000  0.56487601  0.85052285  1
  C  C84  1  0.50000000  0.50384557  0.52917533  1
  C  C85  1  0.50000000  0.50311084  0.89160851  1
  C  C86  1  0.50000000  0.50312388  0.64885792  1
  C  C87  1  0.50000000  0.50320056  0.77020381  1
  C  C88  1  0.50000000  0.53443286  0.54863854  1
  C  C89  1  0.50000000  0.53418208  0.91078861  1
  C  C90  1  0.50000000  0.53393481  0.66911230  1
  C  C91  1  0.50000000  0.53396639  0.79027118  1
  C  C92  1  0.50000000  0.59549012  0.58863098  1
  C  C93  1  0.50000000  0.59530570  0.95196742  1
  C  C94  1  0.50000000  0.59568610  0.70967558  1
  C  C95  1  0.50000000  0.59573160  0.83063134  1
  C  C96  1  0.50000000  0.62625555  0.60833344  1
  C  C97  1  0.50000000  0.62554945  0.97177331  1
  C  C98  1  0.50000000  0.62642359  0.72967179  1
  C  C99  1  0.50000000  0.62632415  0.85092987  1
  C  C100  1  0.50000000  0.56450159  0.52878370  1
  C  C101  1  0.50000000  0.56490150  0.89085578  1
  C  C102  1  0.50000000  0.56486714  0.64928025  1
  C  C103  1  0.50000000  0.56482093  0.77009493  1
  C  C104  1  0.50000000  0.59527054  0.54779088  1
  C  C105  1  0.50000000  0.59549975  0.91113471  1
  C  C106  1  0.50000000  0.59572833  0.66914887  1
  C  C107  1  0.50000000  0.59568524  0.79009875  1
  C  C108  1  0.50000000  0.65686625  0.58770850  1
  C  C109  1  0.50000000  0.65630256  0.95283934  1
  C  C110  1  0.50000000  0.65730347  0.70929611  1
  C  C111  1  0.50000000  0.65732602  0.83103083  1
  C  C112  1  0.50000000  0.68800055  0.60713792  1
  C  C113  1  0.50000000  0.68676756  0.97311321  1
  C  C114  1  0.50000000  0.68801935  0.72938740  1
  C  C115  1  0.50000000  0.68802931  0.85140543  1
  C  C116  1  0.50000000  0.62551360  0.52798536  1
  C  C117  1  0.50000000  0.62626729  0.89143416  1
  C  C118  1  0.50000000  0.62632432  0.64883765  1
  C  C119  1  0.50000000  0.62641980  0.77009603  1
  C  C120  1  0.50000000  0.65626246  0.54691063  1
  C  C121  1  0.50000000  0.65688994  0.91204787  1
  C  C122  1  0.50000000  0.65733514  0.66873345  1
  C  C123  1  0.50000000  0.65729994  0.79045897  1
  C  C124  1  0.50000000  0.71745137  0.58556366  1
  C  C125  1  0.50000000  0.71680016  0.95387184  1
  C  C126  1  0.50000000  0.71786928  0.70839788  1
  C  C127  1  0.50000000  0.71783503  0.83044940  1
  C  C128  1  0.50000000  0.68670902  0.52660930  1
  C  C129  1  0.50000000  0.68802336  0.89263091  1
  C  C130  1  0.50000000  0.68804444  0.64836277  1
  C  C131  1  0.50000000  0.68801370  0.77035814  1
  C  C132  1  0.50000000  0.71672824  0.54587209  1
  C  C133  1  0.50000000  0.71750484  0.91416741  1
  C  C134  1  0.50000000  0.71786987  0.66929613  1
  C  C135  1  0.50000000  0.71785035  0.79136287  1
  H  H136  1  0.50000000  0.26457120  0.60090781  1
  H  H137  1  0.50000000  0.26547115  0.96864918  1
  H  H138  1  0.50000000  0.26503020  0.72347221  1
  H  H139  1  0.50000000  0.26486468  0.84467155  1
  H  H140  1  0.50000000  0.26528504  0.53141379  1
  H  H141  1  0.50000000  0.26457689  0.89923464  1
  H  H142  1  0.50000000  0.26486879  0.65513859  1
  H  H143  1  0.50000000  0.26499087  0.77656006  1
  H  H144  1  0.50000000  0.74171500  0.59951776  1
  H  H145  1  0.50000000  0.74025328  0.96969140  1
  H  H146  1  0.50000000  0.74183833  0.72300486  1
  H  H147  1  0.50000000  0.74184353  0.84496124  1
  H  H148  1  0.50000000  0.74020513  0.53012875  1
  H  H149  1  0.50000000  0.74173294  0.90010508  1
  H  H150  1  0.50000000  0.74184674  0.65468803  1
  H  H151  1  0.50000000  0.74184769  0.77683995  1
  H  H152  1  0.50000000  0.31982993  0.00343230  1
  H  H153  1  0.50000000  0.37800224  0.00226256  1
  H  H154  1  0.50000000  0.31960729  0.49657755  1
  H  H155  1  0.50000000  0.40115769  0.08617806  1
  H  H156  1  0.50000000  0.41423743  0.47431506  1
  H  H157  1  0.50000000  0.39220015  0.21657541  1
  H  H158  1  0.50000000  0.39536776  0.34693942  1
  H  H159  1  0.50000000  0.37812206  0.49764683  1
  H  H160  1  0.50000000  0.47725744  0.10221804  1
  H  H161  1  0.50000000  0.48953888  0.45979827  1
  H  H162  1  0.50000000  0.46961986  0.22203225  1
  H  H163  1  0.50000000  0.47284939  0.34324971  1
  H  H164  1  0.50000000  0.50595225  0.00125390  1
  H  H165  1  0.50000000  0.41415784  0.02572987  1
  H  H166  1  0.50000000  0.40163280  0.41398514  1
  H  H167  1  0.50000000  0.39500852  0.15336130  1
  H  H168  1  0.50000000  0.39238691  0.28399127  1
  H  H169  1  0.50000000  0.48937552  0.04068929  1
  H  H170  1  0.50000000  0.47769335  0.39792518  1
  H  H171  1  0.50000000  0.47244366  0.15671073  1
  H  H172  1  0.50000000  0.46972451  0.27800467  1
  H  H173  1  0.50000000  0.56442412  0.00205154  1
  H  H174  1  0.50000000  0.50586007  0.49871332  1
  H  H175  1  0.50000000  0.62504038  0.00279671  1
  H  H176  1  0.50000000  0.56425508  0.49777040  1
  H  H177  1  0.50000000  0.68602340  0.00410692  1
  H  H178  1  0.50000000  0.62502456  0.49697418  1
  H  H179  1  0.50000000  0.68593828  0.49560071  1
