# generated using pymatgen
data_H11C34
_symmetry_space_group_name_H-M   'P 1'
_cell_length_a   20.00000000
_cell_length_b   40.19450000
_cell_length_c   35.61651176
_cell_angle_alpha   90.00000000
_cell_angle_beta   90.00000000
_cell_angle_gamma   90.00000000
_symmetry_Int_Tables_number   1
_chemical_formula_structural   H11C34
_chemical_formula_sum   'H44 C136'
_cell_volume   28631.75763730
_cell_formula_units_Z   4
loop_
 _symmetry_equiv_pos_site_id
 _symmetry_equiv_pos_as_xyz
  1  'x, y, z'
loop_
 _atom_site_type_symbol
 _atom_site_label
 _atom_site_symmetry_multiplicity
 _atom_site_fract_x
 _atom_site_fract_y
 _atom_site_fract_z
 _atom_site_occupancy
  C  C0  1  0.50000000  0.28295470  0.58837767  1
  C  C1  1  0.50000000  0.28314792  0.95079466  1
  C  C2  1  0.50000000  0.28347479  0.70929419  1
  C  C3  1  0.50000000  0.28332178  0.82928561  1
  C  C4  1  0.50000000  0.31270838  0.60921271  1
  C  C5  1  0.50000000  0.31313433  0.97009035  1
  C  C6  1  0.50000000  0.31352044  0.72965763  1
  C  C7  1  0.50000000  0.31312403  0.85000163  1
  C  C8  1  0.50000000  0.28308671  0.54908474  1
  C  C9  1  0.50000000  0.28300147  0.91150608  1
  C  C10  1  0.50000000  0.28329641  0.67061685  1
  C  C11  1  0.50000000  0.28348930  0.79060247  1
  C  C12  1  0.50000000  0.34363731  0.58972832  1
  C  C13  1  0.50000000  0.34353472  0.95010926  1
  C  C14  1  0.50000000  0.34418387  0.70965780  1
  C  C15  1  0.50000000  0.34406939  0.83043932  1
  C  C16  1  0.50000000  0.37492152  0.60895759  1
  C  C17  1  0.50000000  0.37412061  0.96940963  1
  C  C18  1  0.50000000  0.37504841  0.72981490  1
  C  C19  1  0.50000000  0.37500742  0.85059443  1
  C  C20  1  0.50000000  0.31308117  0.52979296  1
  C  C21  1  0.50000000  0.31275169  0.89066371  1
  C  C22  1  0.50000000  0.31309008  0.64987977  1
  C  C23  1  0.50000000  0.31352972  0.77022995  1
  C  C24  1  0.50000000  0.34348634  0.54976027  1
  C  C25  1  0.50000000  0.34367302  0.91014520  1
  C  C26  1  0.50000000  0.34404374  0.66942969  1
  C  C27  1  0.50000000  0.34419907  0.79021312  1
  C  C28  1  0.50000000  0.42010966  0.08206939  1
  C  C29  1  0.50000000  0.40548414  0.58847052  1
  C  C30  1  0.50000000  0.41485151  0.45646145  1
  C  C31  1  0.50000000  0.40508345  0.95220004  1
  C  C32  1  0.50000000  0.42283765  0.20649302  1
  C  C33  1  0.50000000  0.40563367  0.70968329  1
  C  C34  1  0.50000000  0.42252624  0.33253825  1
  C  C35  1  0.50000000  0.40558309  0.83061465  1
  C  C36  1  0.50000000  0.44963123  0.10379282  1
  C  C37  1  0.50000000  0.43628349  0.60868712  1
  C  C38  1  0.50000000  0.43840248  0.48621072  1
  C  C39  1  0.50000000  0.43607506  0.97425665  1
  C  C40  1  0.50000000  0.45101802  0.23061646  1
  C  C41  1  0.50000000  0.43632577  0.72980532  1
  C  C42  1  0.50000000  0.45051112  0.35701097  1
  C  C43  1  0.50000000  0.43629787  0.85086900  1
  C  C44  1  0.50000000  0.37408530  0.53044977  1
  C  C45  1  0.50000000  0.37495525  0.89090353  1
  C  C46  1  0.50000000  0.37498107  0.64926409  1
  C  C47  1  0.50000000  0.37505878  0.77004687  1
  C  C48  1  0.50000000  0.41482071  0.04340865  1
  C  C49  1  0.50000000  0.40504393  0.54766767  1
  C  C50  1  0.50000000  0.42021554  0.41782791  1
  C  C51  1  0.50000000  0.40551165  0.91139407  1
  C  C52  1  0.50000000  0.42268329  0.16751554  1
  C  C53  1  0.50000000  0.40555850  0.66924792  1
  C  C54  1  0.50000000  0.42261098  0.29357080  1
  C  C55  1  0.50000000  0.40564730  0.79017532  1
  C  C56  1  0.50000000  0.46695725  0.58843903  1
  C  C57  1  0.50000000  0.46739760  0.95221048  1
  C  C58  1  0.50000000  0.46703910  0.70961017  1
  C  C59  1  0.50000000  0.46701519  0.83052665  1
  C  C60  1  0.50000000  0.49762112  0.60901924  1
  C  C61  1  0.50000000  0.49828101  0.96971157  1
  C  C62  1  0.50000000  0.49773831  0.72977898  1
  C  C63  1  0.50000000  0.49768395  0.85047800  1
  C  C64  1  0.50000000  0.43840327  0.01368118  1
  C  C65  1  0.50000000  0.43605102  0.52562588  1
  C  C66  1  0.50000000  0.44972710  0.39608372  1
  C  C67  1  0.50000000  0.43630842  0.89117493  1
  C  C68  1  0.50000000  0.45055520  0.14287219  1
  C  C69  1  0.50000000  0.43627542  0.64899762  1
  C  C70  1  0.50000000  0.45086972  0.26958241  1
  C  C71  1  0.50000000  0.43633631  0.77005534  1
  C  C72  1  0.50000000  0.46737951  0.54766324  1
  C  C73  1  0.50000000  0.46698070  0.91143330  1
  C  C74  1  0.50000000  0.46699348  0.66934362  1
  C  C75  1  0.50000000  0.46705426  0.79025913  1
  C  C76  1  0.50000000  0.52865311  0.58987583  1
  C  C77  1  0.50000000  0.52893135  0.95025628  1
  C  C78  1  0.50000000  0.52847118  0.70978955  1
  C  C79  1  0.50000000  0.52846307  0.83030814  1
  C  C80  1  0.50000000  0.55939032  0.60974496  1
  C  C81  1  0.50000000  0.55919597  0.96973909  1
  C  C82  1  0.50000000  0.55929731  0.72987322  1
  C  C83  1  0.50000000  0.55936566  0.85004987  1
  C  C84  1  0.50000000  0.49826579  0.53016132  1
  C  C85  1  0.50000000  0.49764497  0.89085772  1
  C  C86  1  0.50000000  0.49766058  0.64940097  1
  C  C87  1  0.50000000  0.49774560  0.77010674  1
  C  C88  1  0.50000000  0.52891505  0.54962139  1
  C  C89  1  0.50000000  0.52867615  0.91000642  1
  C  C90  1  0.50000000  0.52844033  0.66958062  1
  C  C91  1  0.50000000  0.52848480  0.79009758  1
  C  C92  1  0.50000000  0.59005509  0.58969814  1
  C  C93  1  0.50000000  0.58998381  0.95076735  1
  C  C94  1  0.50000000  0.59012344  0.70997524  1
  C  C95  1  0.50000000  0.59018476  0.83020128  1
  C  C96  1  0.50000000  0.62077368  0.60940834  1
  C  C97  1  0.50000000  0.62039710  0.97021891  1
  C  C98  1  0.50000000  0.62082233  0.72990818  1
  C  C99  1  0.50000000  0.62080379  0.85028659  1
  C  C100  1  0.50000000  0.55918759  0.53014095  1
  C  C101  1  0.50000000  0.55941927  0.89014558  1
  C  C102  1  0.50000000  0.55934136  0.64984415  1
  C  C103  1  0.50000000  0.55930395  0.77002106  1
  C  C104  1  0.50000000  0.58998033  0.54911884  1
  C  C105  1  0.50000000  0.59008601  0.91019485  1
  C  C106  1  0.50000000  0.59015820  0.66970760  1
  C  C107  1  0.50000000  0.59013110  0.78993100  1
  C  C108  1  0.50000000  0.65147192  0.58910119  1
  C  C109  1  0.50000000  0.65111933  0.95128924  1
  C  C110  1  0.50000000  0.65169847  0.70971471  1
  C  C111  1  0.50000000  0.65177842  0.83045525  1
  C  C112  1  0.50000000  0.68249090  0.60855145  1
  C  C113  1  0.50000000  0.68174556  0.97118379  1
  C  C114  1  0.50000000  0.68240922  0.72963173  1
  C  C115  1  0.50000000  0.68250601  0.85054562  1
  C  C116  1  0.50000000  0.62041315  0.52967886  1
  C  C117  1  0.50000000  0.62081760  0.89050028  1
  C  C118  1  0.50000000  0.62076756  0.64962545  1
  C  C119  1  0.50000000  0.62083548  0.77002300  1
  C  C120  1  0.50000000  0.65112993  0.54863533  1
  C  C121  1  0.50000000  0.65152441  0.91081778  1
  C  C122  1  0.50000000  0.65172538  0.66948340  1
  C  C123  1  0.50000000  0.65172117  0.79021427  1
  C  C124  1  0.50000000  0.71212541  0.58754007  1
  C  C125  1  0.50000000  0.71170771  0.95189407  1
  C  C126  1  0.50000000  0.71228486  0.70887059  1
  C  C127  1  0.50000000  0.71233717  0.82979521  1
  C  C128  1  0.50000000  0.68180716  0.52881712  1
  C  C129  1  0.50000000  0.68258346  0.89140929  1
  C  C130  1  0.50000000  0.68242979  0.64939550  1
  C  C131  1  0.50000000  0.68242523  0.77028187  1
  C  C132  1  0.50000000  0.71173469  0.54817757  1
  C  C133  1  0.50000000  0.71218871  0.91251110  1
  C  C134  1  0.50000000  0.71227424  0.67010528  1
  C  C135  1  0.50000000  0.71231473  0.79101712  1
  H  H136  1  0.50000000  0.25894459  0.60280862  1
  H  H137  1  0.50000000  0.25954359  0.96619435  1
  H  H138  1  0.50000000  0.25962889  0.72398635  1
  H  H139  1  0.50000000  0.25933598  0.84374452  1
  H  H140  1  0.50000000  0.25947608  0.53370311  1
  H  H141  1  0.50000000  0.25898419  0.89708077  1
  H  H142  1  0.50000000  0.25930442  0.65618295  1
  H  H143  1  0.50000000  0.25963318  0.77592375  1
  H  H144  1  0.50000000  0.73616376  0.60186064  1
  H  H145  1  0.50000000  0.73529950  0.96732337  1
  H  H146  1  0.50000000  0.73619606  0.72342787  1
  H  H147  1  0.50000000  0.73625101  0.84438962  1
  H  H148  1  0.50000000  0.73537058  0.53282609  1
  H  H149  1  0.50000000  0.73628771  0.89828621  1
  H  H150  1  0.50000000  0.73616713  0.65548095  1
  H  H151  1  0.50000000  0.73622371  0.77643460  1
  H  H152  1  0.50000000  0.31363959  0.00084752  1
  H  H153  1  0.50000000  0.37205133  -0.00037412  1
  H  H154  1  0.50000000  0.31360149  0.49901287  1
  H  H155  1  0.50000000  0.39691254  0.09837166  1
  H  H156  1  0.50000000  0.38832567  0.46239604  1
  H  H157  1  0.50000000  0.39825881  0.21997142  1
  H  H158  1  0.50000000  0.39780293  0.34561106  1
  H  H159  1  0.50000000  0.47371118  0.08919973  1
  H  H160  1  0.50000000  0.46389919  0.47545689  1
  H  H161  1  0.50000000  0.47563230  0.21725630  1
  H  H162  1  0.50000000  0.47522725  0.34393027  1
  H  H163  1  0.50000000  0.37200486  0.50024776  1
  H  H164  1  0.50000000  0.38832143  0.03733012  1
  H  H165  1  0.50000000  0.39703537  0.40152565  1
  H  H166  1  0.50000000  0.39792825  0.15452418  1
  H  H167  1  0.50000000  0.39802757  0.28013857  1
  H  H168  1  0.50000000  0.50028253  0.00027798  1
  H  H169  1  0.50000000  0.46389623  0.02446223  1
  H  H170  1  0.50000000  0.47384136  0.41058710  1
  H  H171  1  0.50000000  0.47534801  0.15576137  1
  H  H172  1  0.50000000  0.47535072  0.28323988  1
  H  H173  1  0.50000000  0.55898792  0.00052013  1
  H  H174  1  0.50000000  0.50025992  0.49958263  1
  H  H175  1  0.50000000  0.62022411  0.00099477  1
  H  H176  1  0.50000000  0.55897623  0.49934350  1
  H  H177  1  0.50000000  0.68121921  0.00195668  1
  H  H178  1  0.50000000  0.62029059  0.49888353  1
  H  H179  1  0.50000000  0.68143075  0.49804674  1
