# generated using pymatgen
data_H11C34
_symmetry_space_group_name_H-M   'P 1'
_cell_length_a   20.00000000
_cell_length_b   40.19450000
_cell_length_c   35.46231750
_cell_angle_alpha   90.00000000
_cell_angle_beta   90.00000000
_cell_angle_gamma   90.00000000
_symmetry_Int_Tables_number   1
_chemical_formula_structural   H11C34
_chemical_formula_sum   'H44 C136'
_cell_volume   28507.80241865
_cell_formula_units_Z   4
loop_
 _symmetry_equiv_pos_site_id
 _symmetry_equiv_pos_as_xyz
  1  'x, y, z'
loop_
 _atom_site_type_symbol
 _atom_site_label
 _atom_site_symmetry_multiplicity
 _atom_site_fract_x
 _atom_site_fract_y
 _atom_site_fract_z
 _atom_site_occupancy
  C  C0  1  0.50000000  0.28266684  0.58709665  1
  C  C1  1  0.50000000  0.28306034  0.95232081  1
  C  C2  1  0.50000000  0.28276949  0.70890527  1
  C  C3  1  0.50000000  0.28269862  0.82994183  1
  C  C4  1  0.50000000  0.31227797  0.60821370  1
  C  C5  1  0.50000000  0.31299336  0.97177025  1
  C  C6  1  0.50000000  0.31269689  0.72958189  1
  C  C7  1  0.50000000  0.31252336  0.85069883  1
  C  C8  1  0.50000000  0.28303666  0.54754696  1
  C  C9  1  0.50000000  0.28268832  0.91277787  1
  C  C10  1  0.50000000  0.28264195  0.66998785  1
  C  C11  1  0.50000000  0.28279194  0.79101591  1
  C  C12  1  0.50000000  0.34330962  0.58871735  1
  C  C13  1  0.50000000  0.34355676  0.95174051  1
  C  C14  1  0.50000000  0.34342896  0.70963745  1
  C  C15  1  0.50000000  0.34329054  0.83056459  1
  C  C16  1  0.50000000  0.37400162  0.60915047  1
  C  C17  1  0.50000000  0.37436984  0.97056103  1
  C  C18  1  0.50000000  0.37438437  0.72977075  1
  C  C19  1  0.50000000  0.37421307  0.85045891  1
  C  C20  1  0.50000000  0.31296731  0.52809701  1
  C  C21  1  0.50000000  0.31230535  0.89167017  1
  C  C22  1  0.50000000  0.31246642  0.64920011  1
  C  C23  1  0.50000000  0.31271204  0.77029953  1
  C  C24  1  0.50000000  0.34353270  0.54813584  1
  C  C25  1  0.50000000  0.34332460  0.91115773  1
  C  C26  1  0.50000000  0.34325033  0.66929721  1
  C  C27  1  0.50000000  0.34344385  0.79022045  1
  C  C28  1  0.50000000  0.40466950  0.58944425  1
  C  C29  1  0.50000000  0.40443987  0.95071969  1
  C  C30  1  0.50000000  0.40506325  0.70968612  1
  C  C31  1  0.50000000  0.40500690  0.83067003  1
  C  C32  1  0.50000000  0.43584831  0.60860010  1
  C  C33  1  0.50000000  0.43503269  0.97012651  1
  C  C34  1  0.50000000  0.43586520  0.72972860  1
  C  C35  1  0.50000000  0.43586086  0.85083168  1
  C  C36  1  0.50000000  0.37434363  0.52933452  1
  C  C37  1  0.50000000  0.37401659  0.89073154  1
  C  C38  1  0.50000000  0.37418752  0.64941910  1
  C  C39  1  0.50000000  0.37439306  0.77008753  1
  C  C40  1  0.50000000  0.40440697  0.54917099  1
  C  C41  1  0.50000000  0.40469226  0.91043309  1
  C  C42  1  0.50000000  0.40499834  0.66919662  1
  C  C43  1  0.50000000  0.40507563  0.79018098  1
  C  C44  1  0.50000000  0.48236408  0.08300402  1
  C  C45  1  0.50000000  0.46645744  0.58801834  1
  C  C46  1  0.50000000  0.47542193  0.45538678  1
  C  C47  1  0.50000000  0.46589811  0.95279527  1
  C  C48  1  0.50000000  0.49076485  0.20716070  1
  C  C49  1  0.50000000  0.46659638  0.70950416  1
  C  C50  1  0.50000000  0.48875205  0.33184788  1
  C  C51  1  0.50000000  0.46657428  0.83080242  1
  C  C52  1  0.50000000  0.51291045  0.10288803  1
  C  C53  1  0.50000000  0.49719841  0.60812259  1
  C  C54  1  0.50000000  0.49876957  0.48541372  1
  C  C55  1  0.50000000  0.49677607  0.97490517  1
  C  C56  1  0.50000000  0.51948063  0.23054974  1
  C  C57  1  0.50000000  0.49730207  0.72967721  1
  C  C58  1  0.50000000  0.51558911  0.35795036  1
  C  C59  1  0.50000000  0.49723812  0.85118897  1
  C  C60  1  0.50000000  0.43500126  0.52978383  1
  C  C61  1  0.50000000  0.43586341  0.89124425  1
  C  C62  1  0.50000000  0.43584771  0.64902083  1
  C  C63  1  0.50000000  0.43585824  0.77011954  1
  C  C64  1  0.50000000  0.47575610  0.04447326  1
  C  C65  1  0.50000000  0.46585533  0.54713539  1
  C  C66  1  0.50000000  0.48209898  0.41688601  1
  C  C67  1  0.50000000  0.46646570  0.91185909  1
  C  C68  1  0.50000000  0.48913123  0.16812370  1
  C  C69  1  0.50000000  0.46657397  0.66903922  1
  C  C70  1  0.50000000  0.49039471  0.29281082  1
  C  C71  1  0.50000000  0.46659254  0.79033967  1
  C  C72  1  0.50000000  0.52784661  0.58772642  1
  C  C73  1  0.50000000  0.52812416  0.95304615  1
  C  C74  1  0.50000000  0.52799073  0.70944963  1
  C  C75  1  0.50000000  0.52793497  0.83087907  1
  C  C76  1  0.50000000  0.55850611  0.60830211  1
  C  C77  1  0.50000000  0.55886937  0.97081400  1
  C  C78  1  0.50000000  0.55872042  0.72970826  1
  C  C79  1  0.50000000  0.55857129  0.85106129  1
  C  C80  1  0.50000000  0.49901809  0.01440800  1
  C  C81  1  0.50000000  0.49671570  0.52493879  1
  C  C82  1  0.50000000  0.51266260  0.39702560  1
  C  C83  1  0.50000000  0.49719066  0.89172325  1
  C  C84  1  0.50000000  0.51592592  0.14195465  1
  C  C85  1  0.50000000  0.49724828  0.64865094  1
  C  C86  1  0.50000000  0.51924986  0.26968625  1
  C  C87  1  0.50000000  0.49729597  0.77018434  1
  C  C88  1  0.50000000  0.52812466  0.54677662  1
  C  C89  1  0.50000000  0.52784567  0.91208163  1
  C  C90  1  0.50000000  0.52795611  0.66896004  1
  C  C91  1  0.50000000  0.52797962  0.79039609  1
  C  C92  1  0.50000000  0.58955472  0.58889230  1
  C  C93  1  0.50000000  0.58954146  0.95142009  1
  C  C94  1  0.50000000  0.58947999  0.70956529  1
  C  C95  1  0.50000000  0.58943277  0.83090483  1
  C  C96  1  0.50000000  0.62024654  0.60868126  1
  C  C97  1  0.50000000  0.61963262  0.97124731  1
  C  C98  1  0.50000000  0.62014587  0.72977137  1
  C  C99  1  0.50000000  0.62011275  0.85087492  1
  C  C100  1  0.50000000  0.55890752  0.52904562  1
  C  C101  1  0.50000000  0.55847492  0.89154627  1
  C  C102  1  0.50000000  0.55862491  0.64882034  1
  C  C103  1  0.50000000  0.55870847  0.77015500  1
  C  C104  1  0.50000000  0.58961117  0.54844800  1
  C  C105  1  0.50000000  0.58948500  0.91099869  1
  C  C106  1  0.50000000  0.58947473  0.66898966  1
  C  C107  1  0.50000000  0.58945950  0.79032619  1
  C  C108  1  0.50000000  0.65088929  0.58819869  1
  C  C109  1  0.50000000  0.65041763  0.95236642  1
  C  C110  1  0.50000000  0.65106034  0.70953549  1
  C  C111  1  0.50000000  0.65104853  0.83095728  1
  C  C112  1  0.50000000  0.68198554  0.60767938  1
  C  C113  1  0.50000000  0.68091476  0.97250143  1
  C  C114  1  0.50000000  0.68178310  0.72960407  1
  C  C115  1  0.50000000  0.68174894  0.85124737  1
  C  C116  1  0.50000000  0.61974472  0.52866269  1
  C  C117  1  0.50000000  0.62016604  0.89125203  1
  C  C118  1  0.50000000  0.62019654  0.64905868  1
  C  C119  1  0.50000000  0.62013214  0.77020432  1
  C  C120  1  0.50000000  0.65052862  0.54756934  1
  C  C121  1  0.50000000  0.65078057  0.91175635  1
  C  C122  1  0.50000000  0.65113726  0.66905494  1
  C  C123  1  0.50000000  0.65101359  0.79047992  1
  C  C124  1  0.50000000  0.71149287  0.58629897  1
  C  C125  1  0.50000000  0.71090839  0.95321317  1
  C  C126  1  0.50000000  0.71161632  0.70869771  1
  C  C127  1  0.50000000  0.71154013  0.83038992  1
  C  C128  1  0.50000000  0.68102935  0.52742472  1
  C  C129  1  0.50000000  0.68185879  0.89232601  1
  C  C130  1  0.50000000  0.68187607  0.64879119  1
  C  C131  1  0.50000000  0.68175846  0.77047369  1
  C  C132  1  0.50000000  0.71102410  0.54670349  1
  C  C133  1  0.50000000  0.71138746  0.91364090  1
  C  C134  1  0.50000000  0.71164876  0.66971957  1
  C  C135  1  0.50000000  0.71156250  0.79140535  1
  H  H136  1  0.50000000  0.25854656  0.60137215  1
  H  H137  1  0.50000000  0.25936886  0.96763355  1
  H  H138  1  0.50000000  0.25884386  0.72349015  1
  H  H139  1  0.50000000  0.25869560  0.84444688  1
  H  H140  1  0.50000000  0.25934257  0.53223740  1
  H  H141  1  0.50000000  0.25859156  0.89847387  1
  H  H142  1  0.50000000  0.25866576  0.65544734  1
  H  H143  1  0.50000000  0.25883647  0.77648371  1
  H  H144  1  0.50000000  0.73566696  0.60040967  1
  H  H145  1  0.50000000  0.73445973  0.96882193  1
  H  H146  1  0.50000000  0.73560514  0.72319455  1
  H  H147  1  0.50000000  0.73550680  0.84492270  1
  H  H148  1  0.50000000  0.73459277  0.53110872  1
  H  H149  1  0.50000000  0.73554497  0.89950828  1
  H  H150  1  0.50000000  0.73562730  0.65522040  1
  H  H151  1  0.50000000  0.73559607  0.77699121  1
  H  H152  1  0.50000000  0.31354941  0.00269114  1
  H  H153  1  0.50000000  0.37490978  0.00146465  1
  H  H154  1  0.50000000  0.31351346  0.49718117  1
  H  H155  1  0.50000000  0.43293465  0.00048477  1
  H  H156  1  0.50000000  0.37487246  0.49843624  1
  H  H157  1  0.50000000  0.45988422  0.10054167  1
  H  H158  1  0.50000000  0.44871361  0.46050388  1
  H  H159  1  0.50000000  0.46668049  0.22171984  1
  H  H160  1  0.50000000  0.46353725  0.34374294  1
  H  H161  1  0.50000000  0.53613028  0.08661741  1
  H  H162  1  0.50000000  0.52418446  0.47447030  1
  H  H163  1  0.50000000  0.54396343  0.21680656  1
  H  H164  1  0.50000000  0.54093755  0.34648057  1
  H  H165  1  0.50000000  0.43305073  0.49942708  1
  H  H166  1  0.50000000  0.44909229  0.03917173  1
  H  H167  1  0.50000000  0.45967233  0.39924954  1
  H  H168  1  0.50000000  0.46387468  0.15636366  1
  H  H169  1  0.50000000  0.46631706  0.27821356  1
  H  H170  1  0.50000000  0.56083870  0.00149882  1
  H  H171  1  0.50000000  0.52448665  0.02517990  1
  H  H172  1  0.50000000  0.53591285  0.41324486  1
  H  H173  1  0.50000000  0.54132942  0.15333408  1
  H  H174  1  0.50000000  0.54352585  0.28380126  1
  H  H175  1  0.50000000  0.61917898  0.00216085  1
  H  H176  1  0.50000000  0.56084667  0.49835065  1
  H  H177  1  0.50000000  0.68020355  0.00340977  1
  H  H178  1  0.50000000  0.61939857  0.49773925  1
  H  H179  1  0.50000000  0.68031781  0.49651747  1
