# generated using pymatgen
data_H11C36
_symmetry_space_group_name_H-M   'P 1'
_cell_length_a   20.00000000
_cell_length_b   40.19450000
_cell_length_c   35.40839074
_cell_angle_alpha   90.00000000
_cell_angle_beta   90.00000000
_cell_angle_gamma   90.00000000
_symmetry_Int_Tables_number   1
_chemical_formula_structural   H11C36
_chemical_formula_sum   'H44 C144'
_cell_volume   28464.45123152
_cell_formula_units_Z   4
loop_
 _symmetry_equiv_pos_site_id
 _symmetry_equiv_pos_as_xyz
  1  'x, y, z'
loop_
 _atom_site_type_symbol
 _atom_site_label
 _atom_site_symmetry_multiplicity
 _atom_site_fract_x
 _atom_site_fract_y
 _atom_site_fract_z
 _atom_site_occupancy
  C  C0  1  0.50000000  0.28547607  0.58660712  1
  C  C1  1  0.50000000  0.28598079  0.95276557  1
  C  C2  1  0.50000000  0.28549228  0.70877411  1
  C  C3  1  0.50000000  0.28547192  0.83003797  1
  C  C4  1  0.50000000  0.31508321  0.60790803  1
  C  C5  1  0.50000000  0.31595296  0.97214936  1
  C  C6  1  0.50000000  0.31540417  0.72954413  1
  C  C7  1  0.50000000  0.31531202  0.85084990  1
  C  C8  1  0.50000000  0.28595065  0.54698977  1
  C  C9  1  0.50000000  0.28555831  0.91316356  1
  C  C10  1  0.50000000  0.28542579  0.66979217  1
  C  C11  1  0.50000000  0.28552666  0.79106827  1
  C  C12  1  0.50000000  0.34612903  0.58853848  1
  C  C13  1  0.50000000  0.34647282  0.95199899  1
  C  C14  1  0.50000000  0.34616006  0.70960363  1
  C  C15  1  0.50000000  0.34607340  0.83064072  1
  C  C16  1  0.50000000  0.37681091  0.60909936  1
  C  C17  1  0.50000000  0.37723759  0.97076948  1
  C  C18  1  0.50000000  0.37718448  0.72973602  1
  C  C19  1  0.50000000  0.37702386  0.85056656  1
  C  C20  1  0.50000000  0.31596980  0.52770148  1
  C  C21  1  0.50000000  0.31516673  0.89191119  1
  C  C22  1  0.50000000  0.31526082  0.64897788  1
  C  C23  1  0.50000000  0.31542739  0.77029835  1
  C  C24  1  0.50000000  0.34646763  0.54788034  1
  C  C25  1  0.50000000  0.34617584  0.91134521  1
  C  C26  1  0.50000000  0.34601955  0.66921475  1
  C  C27  1  0.50000000  0.34619420  0.79025132  1
  C  C28  1  0.50000000  0.40747417  0.58951405  1
  C  C29  1  0.50000000  0.40731712  0.95066205  1
  C  C30  1  0.50000000  0.40790019  0.70957390  1
  C  C31  1  0.50000000  0.40792997  0.83096223  1
  C  C32  1  0.50000000  0.43887351  0.60811232  1
  C  C33  1  0.50000000  0.43758164  0.97017013  1
  C  C34  1  0.50000000  0.43864175  0.72974831  1
  C  C35  1  0.50000000  0.43878338  0.85127385  1
  C  C36  1  0.50000000  0.37724625  0.52914364  1
  C  C37  1  0.50000000  0.37686956  0.89083058  1
  C  C38  1  0.50000000  0.37698247  0.64935452  1
  C  C39  1  0.50000000  0.37720139  0.77013853  1
  C  C40  1  0.50000000  0.40727599  0.54934498  1
  C  C41  1  0.50000000  0.40751189  0.91047221  1
  C  C42  1  0.50000000  0.40789805  0.66897338  1
  C  C43  1  0.50000000  0.40790169  0.79036484  1
  C  C44  1  0.50000000  0.47099578  0.08424205  1
  C  C45  1  0.50000000  0.46956806  0.58700864  1
  C  C46  1  0.50000000  0.47116531  0.45504337  1
  C  C47  1  0.50000000  0.46947758  0.95452463  1
  C  C48  1  0.50000000  0.47022593  0.20797452  1
  C  C49  1  0.50000000  0.46936384  0.70943490  1
  C  C50  1  0.50000000  0.47019526  0.33114426  1
  C  C51  1  0.50000000  0.46943265  0.83114544  1
  C  C52  1  0.50000000  0.50002115  0.10623731  1
  C  C53  1  0.50000000  0.50000460  0.60760721  1
  C  C54  1  0.50000000  0.50000142  0.47925615  1
  C  C55  1  0.50000000  0.49999870  0.97746768  1
  C  C56  1  0.50000000  0.50004886  0.22910201  1
  C  C57  1  0.50000000  0.50000650  0.72969875  1
  C  C58  1  0.50000000  0.50001538  0.35226078  1
  C  C59  1  0.50000000  0.49999831  0.85162246  1
  C  C60  1  0.50000000  0.43753354  0.52984467  1
  C  C61  1  0.50000000  0.43889419  0.89184915  1
  C  C62  1  0.50000000  0.43877577  0.64868512  1
  C  C63  1  0.50000000  0.43865042  0.77025036  1
  C  C64  1  0.50000000  0.47118030  0.04493805  1
  C  C65  1  0.50000000  0.46946037  0.54542695  1
  C  C66  1  0.50000000  0.47096624  0.41572584  1
  C  C67  1  0.50000000  0.46958650  0.91293268  1
  C  C68  1  0.50000000  0.47020735  0.16871775  1
  C  C69  1  0.50000000  0.46941217  0.66887965  1
  C  C70  1  0.50000000  0.47021983  0.29188299  1
  C  C71  1  0.50000000  0.46937251  0.79058592  1
  C  C72  1  0.50000000  0.52903056  0.08422014  1
  C  C73  1  0.50000000  0.53044118  0.58701000  1
  C  C74  1  0.50000000  0.52883900  0.45505121  1
  C  C75  1  0.50000000  0.53052194  0.95452339  1
  C  C76  1  0.50000000  0.52986852  0.20796612  1
  C  C77  1  0.50000000  0.53065179  0.70943911  1
  C  C78  1  0.50000000  0.52984757  0.33116213  1
  C  C79  1  0.50000000  0.53056801  0.83115109  1
  C  C80  1  0.50000000  0.56112992  0.60812750  1
  C  C81  1  0.50000000  0.56241785  0.97016947  1
  C  C82  1  0.50000000  0.56137121  0.72976162  1
  C  C83  1  0.50000000  0.56122154  0.85127605  1
  C  C84  1  0.50000000  0.49999532  0.02070003  1
  C  C85  1  0.50000000  0.50000009  0.52248767  1
  C  C86  1  0.50000000  0.50000046  0.39370931  1
  C  C87  1  0.50000000  0.49999970  0.89234484  1
  C  C88  1  0.50000000  0.50003592  0.14764946  1
  C  C89  1  0.50000000  0.50000716  0.64841733  1
  C  C90  1  0.50000000  0.50003871  0.27074556  1
  C  C91  1  0.50000000  0.50000443  0.77031180  1
  C  C92  1  0.50000000  0.52881912  0.04491894  1
  C  C93  1  0.50000000  0.53053915  0.54543175  1
  C  C94  1  0.50000000  0.52903011  0.41573514  1
  C  C95  1  0.50000000  0.53041542  0.91293085  1
  C  C96  1  0.50000000  0.52987503  0.16870631  1
  C  C97  1  0.50000000  0.53059851  0.66888691  1
  C  C98  1  0.50000000  0.52984821  0.29189967  1
  C  C99  1  0.50000000  0.53063308  0.79059379  1
  C  C100  1  0.50000000  0.59253152  0.58954245  1
  C  C101  1  0.50000000  0.59268494  0.95066763  1
  C  C102  1  0.50000000  0.59211305  0.70958520  1
  C  C103  1  0.50000000  0.59207743  0.83096731  1
  C  C104  1  0.50000000  0.62320352  0.60911520  1
  C  C105  1  0.50000000  0.62276265  0.97077713  1
  C  C106  1  0.50000000  0.62283056  0.72974579  1
  C  C107  1  0.50000000  0.62298053  0.85057564  1
  C  C108  1  0.50000000  0.56246799  0.52986204  1
  C  C109  1  0.50000000  0.56110928  0.89185101  1
  C  C110  1  0.50000000  0.56123621  0.64870095  1
  C  C111  1  0.50000000  0.56135755  0.77026284  1
  C  C112  1  0.50000000  0.59271670  0.54937708  1
  C  C113  1  0.50000000  0.59248882  0.91047873  1
  C  C114  1  0.50000000  0.59211534  0.66898533  1
  C  C115  1  0.50000000  0.59210997  0.79037040  1
  C  C116  1  0.50000000  0.65387597  0.58854727  1
  C  C117  1  0.50000000  0.65352863  0.95200637  1
  C  C118  1  0.50000000  0.65385639  0.70961843  1
  C  C119  1  0.50000000  0.65393811  0.83065543  1
  C  C120  1  0.50000000  0.68493024  0.60791921  1
  C  C121  1  0.50000000  0.68405324  0.97214752  1
  C  C122  1  0.50000000  0.68461115  0.72955029  1
  C  C123  1  0.50000000  0.68470158  0.85086427  1
  C  C124  1  0.50000000  0.62274655  0.52918088  1
  C  C125  1  0.50000000  0.62312981  0.89084021  1
  C  C126  1  0.50000000  0.62302752  0.64936215  1
  C  C127  1  0.50000000  0.62281561  0.77015303  1
  C  C128  1  0.50000000  0.65353239  0.54789651  1
  C  C129  1  0.50000000  0.65381948  0.91135384  1
  C  C130  1  0.50000000  0.65399456  0.66922651  1
  C  C131  1  0.50000000  0.65382214  0.79026295  1
  C  C132  1  0.50000000  0.71452834  0.58659574  1
  C  C133  1  0.50000000  0.71402507  0.95276058  1
  C  C134  1  0.50000000  0.71453026  0.70879871  1
  C  C135  1  0.50000000  0.71453841  0.83004686  1
  C  C136  1  0.50000000  0.68401692  0.52770302  1
  C  C137  1  0.50000000  0.68483015  0.89192167  1
  C  C138  1  0.50000000  0.68476860  0.64899558  1
  C  C139  1  0.50000000  0.68458120  0.77031147  1
  C  C140  1  0.50000000  0.71403862  0.54698076  1
  C  C141  1  0.50000000  0.71443887  0.91316252  1
  C  C142  1  0.50000000  0.71459775  0.66981838  1
  C  C143  1  0.50000000  0.71448679  0.79108560  1
  H  H144  1  0.50000000  0.26127532  0.60069011  1
  H  H145  1  0.50000000  0.26234053  0.96819870  1
  H  H146  1  0.50000000  0.26152420  0.72336005  1
  H  H147  1  0.50000000  0.26148574  0.84455997  1
  H  H148  1  0.50000000  0.26236387  0.53141298  1
  H  H149  1  0.50000000  0.26141773  0.89895673  1
  H  H150  1  0.50000000  0.26145632  0.65524269  1
  H  H151  1  0.50000000  0.26157193  0.77647863  1
  H  H152  1  0.50000000  0.73872679  0.60067988  1
  H  H153  1  0.50000000  0.73766603  0.96819047  1
  H  H154  1  0.50000000  0.73848842  0.72338534  1
  H  H155  1  0.50000000  0.73853580  0.84457279  1
  H  H156  1  0.50000000  0.73762100  0.53140151  1
  H  H157  1  0.50000000  0.73857457  0.89893963  1
  H  H158  1  0.50000000  0.73858490  0.65528089  1
  H  H159  1  0.50000000  0.73844238  0.77650340  1
  H  H160  1  0.50000000  0.31661353  0.00311266  1
  H  H161  1  0.50000000  0.37781576  0.00175231  1
  H  H162  1  0.50000000  0.31672062  0.49675737  1
  H  H163  1  0.50000000  0.43400534  0.00003042  1
  H  H164  1  0.50000000  0.37790197  0.49815617  1
  H  H165  1  0.50000000  0.44648742  0.09772158  1
  H  H166  1  0.50000000  0.44592897  0.46512695  1
  H  H167  1  0.50000000  0.44614520  0.22237123  1
  H  H168  1  0.50000000  0.44610119  0.34553487  1
  H  H169  1  0.50000000  0.43380430  0.50001300  1
  H  H170  1  0.50000000  0.44592079  0.03494714  1
  H  H171  1  0.50000000  0.44644779  0.40224210  1
  H  H172  1  0.50000000  0.44616511  0.15421768  1
  H  H173  1  0.50000000  0.44610773  0.27753837  1
  H  H174  1  0.50000000  0.55354974  0.09767458  1
  H  H175  1  0.50000000  0.55406819  0.46516437  1
  H  H176  1  0.50000000  0.55395821  0.22235447  1
  H  H177  1  0.50000000  0.55393264  0.34557183  1
  H  H178  1  0.50000000  0.56599114  0.00002850  1
  H  H179  1  0.50000000  0.55407187  0.03491448  1
  H  H180  1  0.50000000  0.55354913  0.40226176  1
  H  H181  1  0.50000000  0.55391686  0.15420040  1
  H  H182  1  0.50000000  0.55396909  0.27756910  1
  H  H183  1  0.50000000  0.62217569  0.00175746  1
  H  H184  1  0.50000000  0.56620674  0.50003470  1
  H  H185  1  0.50000000  0.68339875  0.00310779  1
  H  H186  1  0.50000000  0.62205950  0.49819515  1
  H  H187  1  0.50000000  0.68326636  0.49675149  1
