# generated using pymatgen
data_H11C36
_symmetry_space_group_name_H-M   'P 1'
_cell_length_a   20.00000000
_cell_length_b   40.19450000
_cell_length_c   34.96828277
_cell_angle_alpha   90.00000000
_cell_angle_beta   90.00000000
_cell_angle_gamma   90.00000000
_symmetry_Int_Tables_number   1
_chemical_formula_structural   H11C36
_chemical_formula_sum   'H44 C144'
_cell_volume   28110.65283953
_cell_formula_units_Z   4
loop_
 _symmetry_equiv_pos_site_id
 _symmetry_equiv_pos_as_xyz
  1  'x, y, z'
loop_
 _atom_site_type_symbol
 _atom_site_label
 _atom_site_symmetry_multiplicity
 _atom_site_fract_x
 _atom_site_fract_y
 _atom_site_fract_z
 _atom_site_occupancy
  C  C0  1  0.50000000  0.27630415  0.07710573  1
  C  C1  1  0.50000000  0.28951414  0.58402478  1
  C  C2  1  0.50000000  0.28188840  0.46209458  1
  C  C3  1  0.50000000  0.28971303  0.95573959  1
  C  C4  1  0.50000000  0.26692137  0.20579735  1
  C  C5  1  0.50000000  0.28901939  0.70783790  1
  C  C6  1  0.50000000  0.26848050  0.33402032  1
  C  C7  1  0.50000000  0.28917012  0.83177373  1
  C  C8  1  0.50000000  0.30264681  0.10384409  1
  C  C9  1  0.50000000  0.31915929  0.60548724  1
  C  C10  1  0.50000000  0.31415453  0.47912290  1
  C  C11  1  0.50000000  0.31869254  0.97831677  1
  C  C12  1  0.50000000  0.29588870  0.22867266  1
  C  C13  1  0.50000000  0.31879252  0.72926530  1
  C  C14  1  0.50000000  0.29911473  0.35380369  1
  C  C15  1  0.50000000  0.31904337  0.85291613  1
  C  C16  1  0.50000000  0.28185708  0.03767740  1
  C  C17  1  0.50000000  0.28955130  0.54429656  1
  C  C18  1  0.50000000  0.27627923  0.42264713  1
  C  C19  1  0.50000000  0.28955470  0.91603052  1
  C  C20  1  0.50000000  0.26841888  0.16575253  1
  C  C21  1  0.50000000  0.28915022  0.66826315  1
  C  C22  1  0.50000000  0.26692198  0.29397969  1
  C  C23  1  0.50000000  0.28903787  0.79220820  1
  C  C24  1  0.50000000  0.33451795  0.08735853  1
  C  C25  1  0.50000000  0.34965751  0.58489977  1
  C  C26  1  0.50000000  0.33997329  0.45158520  1
  C  C27  1  0.50000000  0.35001574  0.95694909  1
  C  C28  1  0.50000000  0.32634948  0.20862444  1
  C  C29  1  0.50000000  0.34953041  0.70891853  1
  C  C30  1  0.50000000  0.32787715  0.33064625  1
  C  C31  1  0.50000000  0.34961066  0.83214397  1
  C  C32  1  0.50000000  0.38038337  0.60620737  1
  C  C33  1  0.50000000  0.38165763  0.97398394  1
  C  C34  1  0.50000000  0.38037957  0.72949818  1
  C  C35  1  0.50000000  0.38041029  0.85256756  1
  C  C36  1  0.50000000  0.31414239  0.02073483  1
  C  C37  1  0.50000000  0.31851815  0.52163278  1
  C  C38  1  0.50000000  0.30263830  0.39592804  1
  C  C39  1  0.50000000  0.31919495  0.89453909  1
  C  C40  1  0.50000000  0.29905352  0.14595736  1
  C  C41  1  0.50000000  0.31902052  0.64710586  1
  C  C42  1  0.50000000  0.29587811  0.27106293  1
  C  C43  1  0.50000000  0.31879183  0.77074639  1
  C  C44  1  0.50000000  0.33997614  0.04821914  1
  C  C45  1  0.50000000  0.34984167  0.54302580  1
  C  C46  1  0.50000000  0.33448837  0.41243271  1
  C  C47  1  0.50000000  0.34973833  0.91506462  1
  C  C48  1  0.50000000  0.32782985  0.16908137  1
  C  C49  1  0.50000000  0.34957762  0.66783411  1
  C  C50  1  0.50000000  0.32635059  0.29108981  1
  C  C51  1  0.50000000  0.34952813  0.79105586  1
  C  C52  1  0.50000000  0.41138489  0.58700218  1
  C  C53  1  0.50000000  0.41187740  0.95381732  1
  C  C54  1  0.50000000  0.41102992  0.70910562  1
  C  C55  1  0.50000000  0.41103175  0.83188866  1
  C  C56  1  0.50000000  0.44210725  0.60725829  1
  C  C57  1  0.50000000  0.44236259  0.97355155  1
  C  C58  1  0.50000000  0.44182884  0.72950871  1
  C  C59  1  0.50000000  0.44202794  0.85175831  1
  C  C60  1  0.50000000  0.38144676  0.52591773  1
  C  C61  1  0.50000000  0.38045245  0.89371147  1
  C  C62  1  0.50000000  0.38036669  0.64738006  1
  C  C63  1  0.50000000  0.38036748  0.77045400  1
  C  C64  1  0.50000000  0.41169498  0.54603036  1
  C  C65  1  0.50000000  0.41150277  0.91286031  1
  C  C66  1  0.50000000  0.41100487  0.66801245  1
  C  C67  1  0.50000000  0.41103522  0.79080852  1
  C  C68  1  0.50000000  0.47276168  0.58694372  1
  C  C69  1  0.50000000  0.47302748  0.95414949  1
  C  C70  1  0.50000000  0.47269253  0.70925816  1
  C  C71  1  0.50000000  0.47278757  0.83142015  1
  C  C72  1  0.50000000  0.50347542  0.60714503  1
  C  C73  1  0.50000000  0.50359324  0.97376227  1
  C  C74  1  0.50000000  0.50351445  0.72947949  1
  C  C75  1  0.50000000  0.50357067  0.85168520  1
  C  C76  1  0.50000000  0.44214369  0.52622188  1
  C  C77  1  0.50000000  0.44221643  0.89256699  1
  C  C78  1  0.50000000  0.44196265  0.64807924  1
  C  C79  1  0.50000000  0.44183448  0.77039303  1
  C  C80  1  0.50000000  0.47281520  0.54559429  1
  C  C81  1  0.50000000  0.47290823  0.91282155  1
  C  C82  1  0.50000000  0.47271589  0.66841840  1
  C  C83  1  0.50000000  0.47272987  0.79059238  1
  C  C84  1  0.50000000  0.53413375  0.58681093  1
  C  C85  1  0.50000000  0.53428845  0.95432986  1
  C  C86  1  0.50000000  0.53429067  0.70919520  1
  C  C87  1  0.50000000  0.53435009  0.83145149  1
  C  C88  1  0.50000000  0.56486754  0.60700492  1
  C  C89  1  0.50000000  0.56489299  0.97390728  1
  C  C90  1  0.50000000  0.56513925  0.72946642  1
  C  C91  1  0.50000000  0.56511371  0.85182089  1
  C  C92  1  0.50000000  0.50335168  0.52594945  1
  C  C93  1  0.50000000  0.50362930  0.89263388  1
  C  C94  1  0.50000000  0.50346861  0.64811058  1
  C  C95  1  0.50000000  0.50353615  0.77034222  1
  C  C96  1  0.50000000  0.53402118  0.54541873  1
  C  C97  1  0.50000000  0.53432874  0.91294031  1
  C  C98  1  0.50000000  0.53426004  0.66833106  1
  C  C99  1  0.50000000  0.53433734  0.79059267  1
  C  C100  1  0.50000000  0.59556992  0.58660637  1
  C  C101  1  0.50000000  0.59559249  0.95445804  1
  C  C102  1  0.50000000  0.59592187  0.70911082  1
  C  C103  1  0.50000000  0.59597800  0.83166052  1
  C  C104  1  0.50000000  0.62629792  0.60660051  1
  C  C105  1  0.50000000  0.62608361  0.97424169  1
  C  C106  1  0.50000000  0.62662133  0.72940426  1
  C  C107  1  0.50000000  0.62659529  0.85210968  1
  C  C108  1  0.50000000  0.56457667  0.52580066  1
  C  C109  1  0.50000000  0.56505727  0.89273293  1
  C  C110  1  0.50000000  0.56499315  0.64792486  1
  C  C111  1  0.50000000  0.56516915  0.77030310  1
  C  C112  1  0.50000000  0.59525641  0.54526195  1
  C  C113  1  0.50000000  0.59580576  0.91310434  1
  C  C114  1  0.50000000  0.59586885  0.66807974  1
  C  C115  1  0.50000000  0.59597558  0.79063128  1
  C  C116  1  0.50000000  0.65701110  0.58589453  1
  C  C117  1  0.50000000  0.65684659  0.95499856  1
  C  C118  1  0.50000000  0.65747561  0.70880871  1
  C  C119  1  0.50000000  0.65757588  0.83189422  1
  C  C120  1  0.50000000  0.68810321  0.60559843  1
  C  C121  1  0.50000000  0.68750072  0.97525205  1
  C  C122  1  0.50000000  0.68819678  0.72911888  1
  C  C123  1  0.50000000  0.68832450  0.85235353  1
  C  C124  1  0.50000000  0.62569037  0.52544769  1
  C  C125  1  0.50000000  0.62651928  0.89309658  1
  C  C126  1  0.50000000  0.62645234  0.64759639  1
  C  C127  1  0.50000000  0.62665564  0.77032412  1
  C  C128  1  0.50000000  0.65644496  0.54468046  1
  C  C129  1  0.50000000  0.65727926  0.91376938  1
  C  C130  1  0.50000000  0.65746174  0.66777756  1
  C  C131  1  0.50000000  0.65753686  0.79088242  1
  C  C132  1  0.50000000  0.71764575  0.58396429  1
  C  C133  1  0.50000000  0.71747096  0.95557871  1
  C  C134  1  0.50000000  0.71802953  0.70792980  1
  C  C135  1  0.50000000  0.71814467  0.83121083  1
  C  C136  1  0.50000000  0.68700609  0.52432283  1
  C  C137  1  0.50000000  0.68831936  0.89399061  1
  C  C138  1  0.50000000  0.68818903  0.64725610  1
  C  C139  1  0.50000000  0.68824347  0.77054488  1
  C  C140  1  0.50000000  0.71702697  0.54385558  1
  C  C141  1  0.50000000  0.71793385  0.91548379  1
  C  C142  1  0.50000000  0.71801807  0.66840497  1
  C  C143  1  0.50000000  0.71812055  0.79168423  1
  H  H144  1  0.50000000  0.25043490  0.08698098  1
  H  H145  1  0.50000000  0.26541122  0.59851959  1
  H  H146  1  0.50000000  0.25962167  0.48001335  1
  H  H147  1  0.50000000  0.26537180  0.96959072  1
  H  H148  1  0.50000000  0.24237358  0.21945812  1
  H  H149  1  0.50000000  0.26494875  0.72239944  1
  H  H150  1  0.50000000  0.24505589  0.35006232  1
  H  H151  1  0.50000000  0.26519072  0.84652883  1
  H  H152  1  0.50000000  0.25957086  0.01977021  1
  H  H153  1  0.50000000  0.26517228  0.53051175  1
  H  H154  1  0.50000000  0.25039222  0.41282682  1
  H  H155  1  0.50000000  0.26535372  0.90176667  1
  H  H156  1  0.50000000  0.24497492  0.14973914  1
  H  H157  1  0.50000000  0.26519545  0.65346332  1
  H  H158  1  0.50000000  0.24231946  0.28044714  1
  H  H159  1  0.50000000  0.26489997  0.77780593  1
  H  H160  1  0.50000000  0.74181702  0.59830893  1
  H  H161  1  0.50000000  0.74112950  0.97118605  1
  H  H162  1  0.50000000  0.74202599  0.72261745  1
  H  H163  1  0.50000000  0.74212735  0.84595768  1
  H  H164  1  0.50000000  0.74055113  0.52800246  1
  H  H165  1  0.50000000  0.74204720  0.90102975  1
  H  H166  1  0.50000000  0.74204712  0.65377027  1
  H  H167  1  0.50000000  0.74211302  0.77698556  1
  H  H168  1  0.50000000  0.35674043  0.10531536  1
  H  H169  1  0.50000000  0.36606140  0.45908184  1
  H  H170  1  0.50000000  0.35006687  0.22389007  1
  H  H171  1  0.50000000  0.35264936  0.34349945  1
  H  H172  1  0.50000000  0.38469445  0.00463355  1
  H  H173  1  0.50000000  0.36605287  0.04068680  1
  H  H174  1  0.50000000  0.35665240  0.39440499  1
  H  H175  1  0.50000000  0.35259737  0.15624062  1
  H  H176  1  0.50000000  0.35002726  0.27574551  1
  H  H177  1  0.50000000  0.44215658  0.00491061  1
  H  H178  1  0.50000000  0.38436556  0.49524807  1
  H  H179  1  0.50000000  0.50339619  0.00510250  1
  H  H180  1  0.50000000  0.44193185  0.49485314  1
  H  H181  1  0.50000000  0.56501245  0.00525607  1
  H  H182  1  0.50000000  0.50322146  0.49458593  1
  H  H183  1  0.50000000  0.62586831  0.00559889  1
  H  H184  1  0.50000000  0.56464166  0.49443834  1
  H  H185  1  0.50000000  0.68702400  0.00660344  1
  H  H186  1  0.50000000  0.62535291  0.49409796  1
  H  H187  1  0.50000000  0.68639107  0.49299936  1
