# generated using pymatgen
data_H7C24
_symmetry_space_group_name_H-M   'P 1'
_cell_length_a   20.00000000
_cell_length_b   40.19450000
_cell_length_c   34.66235645
_cell_angle_alpha   90.00000000
_cell_angle_beta   90.00000000
_cell_angle_gamma   90.00000000
_symmetry_Int_Tables_number   1
_chemical_formula_structural   H7C24
_chemical_formula_sum   'H42 C144'
_cell_volume   27864.72172527
_cell_formula_units_Z   6
loop_
 _symmetry_equiv_pos_site_id
 _symmetry_equiv_pos_as_xyz
  1  'x, y, z'
loop_
 _atom_site_type_symbol
 _atom_site_label
 _atom_site_symmetry_multiplicity
 _atom_site_fract_x
 _atom_site_fract_y
 _atom_site_fract_z
 _atom_site_occupancy
  C  C0  1  0.50000000  0.28549259  0.58317526  1
  C  C1  1  0.50000000  0.28546264  0.95614234  1
  C  C2  1  0.50000000  0.28588041  0.70769088  1
  C  C3  1  0.50000000  0.28588224  0.83188079  1
  C  C4  1  0.50000000  0.31577733  0.10380010  1
  C  C5  1  0.50000000  0.31582578  0.60477124  1
  C  C6  1  0.50000000  0.31580436  0.48171960  1
  C  C7  1  0.50000000  0.31585183  0.97746697  1
  C  C8  1  0.50000000  0.31574620  0.22989372  1
  C  C9  1  0.50000000  0.31588796  0.72905073  1
  C  C10  1  0.50000000  0.31572277  0.35587919  1
  C  C11  1  0.50000000  0.31584833  0.85335615  1
  C  C12  1  0.50000000  0.28541511  0.54364392  1
  C  C13  1  0.50000000  0.28555705  0.91660921  1
  C  C14  1  0.50000000  0.28586472  0.66795036  1
  C  C15  1  0.50000000  0.28588794  0.79212143  1
  C  C16  1  0.50000000  0.34553336  0.08221814  1
  C  C17  1  0.50000000  0.34646556  0.58449335  1
  C  C18  1  0.50000000  0.34543761  0.46047969  1
  C  C19  1  0.50000000  0.34659098  0.95664437  1
  C  C20  1  0.50000000  0.34548904  0.20830556  1
  C  C21  1  0.50000000  0.34657108  0.70848481  1
  C  C22  1  0.50000000  0.34549934  0.33431449  1
  C  C23  1  0.50000000  0.34658185  0.83273061  1
  C  C24  1  0.50000000  0.37526272  0.10384914  1
  C  C25  1  0.50000000  0.37754522  0.60525398  1
  C  C26  1  0.50000000  0.37552665  0.48160605  1
  C  C27  1  0.50000000  0.37689919  0.97790750  1
  C  C28  1  0.50000000  0.37524927  0.22988132  1
  C  C29  1  0.50000000  0.37740464  0.72930524  1
  C  C30  1  0.50000000  0.37524225  0.35588939  1
  C  C31  1  0.50000000  0.37746791  0.85337333  1
  C  C32  1  0.50000000  0.31577838  0.01809835  1
  C  C33  1  0.50000000  0.31581539  0.52233961  1
  C  C34  1  0.50000000  0.31569669  0.39606451  1
  C  C35  1  0.50000000  0.31586365  0.89502001  1
  C  C36  1  0.50000000  0.31572516  0.14399108  1
  C  C37  1  0.50000000  0.31582960  0.64645236  1
  C  C38  1  0.50000000  0.31575855  0.27005518  1
  C  C39  1  0.50000000  0.31588683  0.77074426  1
  C  C40  1  0.50000000  0.34541586  0.03937274  1
  C  C41  1  0.50000000  0.34654589  0.54317261  1
  C  C42  1  0.50000000  0.34545862  0.41764843  1
  C  C43  1  0.50000000  0.34649439  0.91532371  1
  C  C44  1  0.50000000  0.34547662  0.16560349  1
  C  C45  1  0.50000000  0.34658194  0.66706543  1
  C  C46  1  0.50000000  0.34551080  0.29162652  1
  C  C47  1  0.50000000  0.34656170  0.79131215  1
  C  C48  1  0.50000000  0.40817367  0.58473713  1
  C  C49  1  0.50000000  0.40852937  0.95679418  1
  C  C50  1  0.50000000  0.40812643  0.70870678  1
  C  C51  1  0.50000000  0.40817317  0.83250059  1
  C  C52  1  0.50000000  0.43889199  0.60562220  1
  C  C53  1  0.50000000  0.43893736  0.97564358  1
  C  C54  1  0.50000000  0.43885256  0.72931019  1
  C  C55  1  0.50000000  0.43884671  0.85291045  1
  C  C56  1  0.50000000  0.37547651  0.01823111  1
  C  C57  1  0.50000000  0.37692557  0.52193701  1
  C  C58  1  0.50000000  0.37519931  0.39606641  1
  C  C59  1  0.50000000  0.37755287  0.89455878  1
  C  C60  1  0.50000000  0.37523217  0.14404716  1
  C  C61  1  0.50000000  0.37747273  0.64644277  1
  C  C62  1  0.50000000  0.37525408  0.27004552  1
  C  C63  1  0.50000000  0.37740502  0.77052415  1
  C  C64  1  0.50000000  0.40860056  0.54306693  1
  C  C65  1  0.50000000  0.40815007  0.91512663  1
  C  C66  1  0.50000000  0.40817291  0.66735090  1
  C  C67  1  0.50000000  0.40812859  0.79114416  1
  C  C68  1  0.50000000  0.46970605  0.58556723  1
  C  C69  1  0.50000000  0.46979456  0.95580055  1
  C  C70  1  0.50000000  0.46965782  0.70879482  1
  C  C71  1  0.50000000  0.46965999  0.83228816  1
  C  C72  1  0.50000000  0.50050187  0.60596997  1
  C  C73  1  0.50000000  0.50011627  0.97575633  1
  C  C74  1  0.50000000  0.50045554  0.72932147  1
  C  C75  1  0.50000000  0.50043399  0.85269670  1
  C  C76  1  0.50000000  0.43901321  0.52423750  1
  C  C77  1  0.50000000  0.43887833  0.89427819  1
  C  C78  1  0.50000000  0.43885917  0.64697731  1
  C  C79  1  0.50000000  0.43885884  0.77056329  1
  C  C80  1  0.50000000  0.46984952  0.54413581  1
  C  C81  1  0.50000000  0.46966733  0.91436774  1
  C  C82  1  0.50000000  0.46967601  0.66760846  1
  C  C83  1  0.50000000  0.46965851  0.79109726  1
  C  C84  1  0.50000000  0.53105809  0.58547918  1
  C  C85  1  0.50000000  0.53089773  0.95618937  1
  C  C86  1  0.50000000  0.53119723  0.70888606  1
  C  C87  1  0.50000000  0.53116229  0.83224909  1
  C  C88  1  0.50000000  0.56185567  0.60587810  1
  C  C89  1  0.50000000  0.56141151  0.97601142  1
  C  C90  1  0.50000000  0.56204388  0.72936629  1
  C  C91  1  0.50000000  0.56189374  0.85283443  1
  C  C92  1  0.50000000  0.50018729  0.52421728  1
  C  C93  1  0.50000000  0.50045420  0.89397977  1
  C  C94  1  0.50000000  0.50047643  0.64724351  1
  C  C95  1  0.50000000  0.50045619  0.77057881  1
  C  C96  1  0.50000000  0.53096533  0.54379731  1
  C  C97  1  0.50000000  0.53099025  0.91449838  1
  C  C98  1  0.50000000  0.53121055  0.66768689  1
  C  C99  1  0.50000000  0.53118550  0.79103472  1
  C  C100  1  0.50000000  0.59248467  0.58527917  1
  C  C101  1  0.50000000  0.59211664  0.95639331  1
  C  C102  1  0.50000000  0.59281247  0.70882890  1
  C  C103  1  0.50000000  0.59273394  0.83245702  1
  C  C104  1  0.50000000  0.62323317  0.60544310  1
  C  C105  1  0.50000000  0.62255456  0.97638542  1
  C  C106  1  0.50000000  0.62348963  0.72929792  1
  C  C107  1  0.50000000  0.62328019  0.85311877  1
  C  C108  1  0.50000000  0.56147437  0.52396800  1
  C  C109  1  0.50000000  0.56177606  0.89407902  1
  C  C110  1  0.50000000  0.56195454  0.64710591  1
  C  C111  1  0.50000000  0.56202238  0.77052892  1
  C  C112  1  0.50000000  0.59218261  0.54356161  1
  C  C113  1  0.50000000  0.59239613  0.91466601  1
  C  C114  1  0.50000000  0.59280604  0.66744446  1
  C  C115  1  0.50000000  0.59277994  0.79105566  1
  C  C116  1  0.50000000  0.65392702  0.58448650  1
  C  C117  1  0.50000000  0.65330848  0.95698029  1
  C  C118  1  0.50000000  0.65437412  0.70852394  1
  C  C119  1  0.50000000  0.65427277  0.83269596  1
  C  C120  1  0.50000000  0.68502156  0.60435175  1
  C  C121  1  0.50000000  0.68388994  0.97747555  1
  C  C122  1  0.50000000  0.68507837  0.72902849  1
  C  C123  1  0.50000000  0.68491509  0.85345683  1
  C  C124  1  0.50000000  0.62259434  0.52351177  1
  C  C125  1  0.50000000  0.62312086  0.89445707  1
  C  C126  1  0.50000000  0.62337104  0.64677215  1
  C  C127  1  0.50000000  0.62346035  0.77056518  1
  C  C128  1  0.50000000  0.65337178  0.54287453  1
  C  C129  1  0.50000000  0.65379624  0.91538940  1
  C  C130  1  0.50000000  0.65438872  0.66714219  1
  C  C131  1  0.50000000  0.65432091  0.79131872  1
  C  C132  1  0.50000000  0.71455696  0.58245385  1
  C  C133  1  0.50000000  0.71387815  0.95768748  1
  C  C134  1  0.50000000  0.71493934  0.70762225  1
  C  C135  1  0.50000000  0.71480088  0.83219544  1
  C  C136  1  0.50000000  0.68391728  0.52228327  1
  C  C137  1  0.50000000  0.68482921  0.89546654  1
  C  C138  1  0.50000000  0.68508436  0.64640159  1
  C  C139  1  0.50000000  0.68504587  0.77084951  1
  C  C140  1  0.50000000  0.71396206  0.54197585  1
  C  C141  1  0.50000000  0.71439503  0.91723405  1
  C  C142  1  0.50000000  0.71494774  0.66773447  1
  C  C143  1  0.50000000  0.71485998  0.79231653  1
  H  H144  1  0.50000000  0.26159810  0.59826223  1
  H  H145  1  0.50000000  0.26188952  0.97207892  1
  H  H146  1  0.50000000  0.26192095  0.72265567  1
  H  H147  1  0.50000000  0.26190402  0.84674200  1
  H  H148  1  0.50000000  0.26182631  0.52770789  1
  H  H149  1  0.50000000  0.26170180  0.90147167  1
  H  H150  1  0.50000000  0.26190121  0.65304524  1
  H  H151  1  0.50000000  0.26194885  0.77713797  1
  H  H152  1  0.50000000  0.73874416  0.59688854  1
  H  H153  1  0.50000000  0.73747489  0.97354271  1
  H  H154  1  0.50000000  0.73886508  0.72262182  1
  H  H155  1  0.50000000  0.73868930  0.84726412  1
  H  H156  1  0.50000000  0.73752788  0.52601963  1
  H  H157  1  0.50000000  0.73849849  0.90263174  1
  H  H158  1  0.50000000  0.73885950  0.65267342  1
  H  H159  1  0.50000000  0.73882329  0.77743500  1
  H  H160  1  0.50000000  0.29167559  0.08910470  1
  H  H161  1  0.50000000  0.29158312  0.46724585  1
  H  H162  1  0.50000000  0.29159319  0.21533008  1
  H  H163  1  0.50000000  0.29164472  0.34111369  1
  H  H164  1  0.50000000  0.39943792  0.08934485  1
  H  H165  1  0.50000000  0.39891584  0.46568496  1
  H  H166  1  0.50000000  0.39933730  0.21521504  1
  H  H167  1  0.50000000  0.39932944  0.34118645  1
  H  H168  1  0.50000000  0.29149270  0.03240859  1
  H  H169  1  0.50000000  0.29156323  0.41071478  1
  H  H170  1  0.50000000  0.29160913  0.15868192  1
  H  H171  1  0.50000000  0.29163227  0.28466238  1
  H  H172  1  0.50000000  0.44016904  0.00717848  1
  H  H173  1  0.50000000  0.39886846  0.03412774  1
  H  H174  1  0.50000000  0.39931134  0.41070460  1
  H  H175  1  0.50000000  0.39929852  0.15879233  1
  H  H176  1  0.50000000  0.39934705  0.28470535  1
  H  H177  1  0.50000000  0.49996790  0.00740275  1
  H  H178  1  0.50000000  0.44029878  0.49270581  1
  H  H179  1  0.50000000  0.56139183  0.00764259  1
  H  H180  1  0.50000000  0.50004961  0.49257388  1
  H  H181  1  0.50000000  0.62224304  0.00800823  1
  H  H182  1  0.50000000  0.56147147  0.49233889  1
  H  H183  1  0.50000000  0.68327723  0.00908399  1
  H  H184  1  0.50000000  0.62222008  0.49188051  1
  H  H185  1  0.50000000  0.68322123  0.49066682  1
