# generated using pymatgen
data_H11C36
_symmetry_space_group_name_H-M   'P 1'
_cell_length_a   20.00000000
_cell_length_b   40.19450000
_cell_length_c   35.40420788
_cell_angle_alpha   90.00000000
_cell_angle_beta   90.00000000
_cell_angle_gamma   90.00000000
_symmetry_Int_Tables_number   1
_chemical_formula_structural   H11C36
_chemical_formula_sum   'H44 C144'
_cell_volume   28461.08867303
_cell_formula_units_Z   4
loop_
 _symmetry_equiv_pos_site_id
 _symmetry_equiv_pos_as_xyz
  1  'x, y, z'
loop_
 _atom_site_type_symbol
 _atom_site_label
 _atom_site_symmetry_multiplicity
 _atom_site_fract_x
 _atom_site_fract_y
 _atom_site_fract_z
 _atom_site_occupancy
  C  C0  1  0.50000000  0.28497819  0.58921523  1
  C  C1  1  0.50000000  0.28418532  0.94966889  1
  C  C2  1  0.50000000  0.28641442  0.70880871  1
  C  C3  1  0.50000000  0.28639776  0.82998491  1
  C  C4  1  0.50000000  0.31587928  0.60774770  1
  C  C5  1  0.50000000  0.31355642  0.97008837  1
  C  C6  1  0.50000000  0.31631739  0.72950602  1
  C  C7  1  0.50000000  0.31621584  0.85104522  1
  C  C8  1  0.50000000  0.28414126  0.55022609  1
  C  C9  1  0.50000000  0.28501757  0.91067282  1
  C  C10  1  0.50000000  0.28640883  0.66986215  1
  C  C11  1  0.50000000  0.28640906  0.79104709  1
  C  C12  1  0.50000000  0.34792380  0.08389018  1
  C  C13  1  0.50000000  0.34644257  0.58660772  1
  C  C14  1  0.50000000  0.34815012  0.45516325  1
  C  C15  1  0.50000000  0.34608265  0.95449623  1
  C  C16  1  0.50000000  0.34721886  0.20793584  1
  C  C17  1  0.50000000  0.34687703  0.70927267  1
  C  C18  1  0.50000000  0.34725758  0.33121583  1
  C  C19  1  0.50000000  0.34683097  0.83112689  1
  C  C20  1  0.50000000  0.37691337  0.10599538  1
  C  C21  1  0.50000000  0.37717030  0.60736494  1
  C  C22  1  0.50000000  0.37695311  0.47925281  1
  C  C23  1  0.50000000  0.37682612  0.97725545  1
  C  C24  1  0.50000000  0.37705095  0.22905813  1
  C  C25  1  0.50000000  0.37758475  0.72966390  1
  C  C26  1  0.50000000  0.37704126  0.35229703  1
  C  C27  1  0.50000000  0.37744665  0.85168373  1
  C  C28  1  0.50000000  0.31348282  0.52973311  1
  C  C29  1  0.50000000  0.31589856  0.89209042  1
  C  C30  1  0.50000000  0.31621854  0.64879610  1
  C  C31  1  0.50000000  0.31631790  0.77033492  1
  C  C32  1  0.50000000  0.34820451  0.04456163  1
  C  C33  1  0.50000000  0.34603105  0.54528418  1
  C  C34  1  0.50000000  0.34788382  0.41583621  1
  C  C35  1  0.50000000  0.34648261  0.91318457  1
  C  C36  1  0.50000000  0.34719473  0.16863884  1
  C  C37  1  0.50000000  0.34682648  0.66869642  1
  C  C38  1  0.50000000  0.34725674  0.29193508  1
  C  C39  1  0.50000000  0.34688612  0.79056805  1
  C  C40  1  0.50000000  0.40594125  0.08399226  1
  C  C41  1  0.50000000  0.40745489  0.58689673  1
  C  C42  1  0.50000000  0.40576894  0.45511499  1
  C  C43  1  0.50000000  0.40751387  0.95447288  1
  C  C44  1  0.50000000  0.40683685  0.20786452  1
  C  C45  1  0.50000000  0.40806875  0.70935688  1
  C  C46  1  0.50000000  0.40687753  0.33125907  1
  C  C47  1  0.50000000  0.40793749  0.83111834  1
  C  C48  1  0.50000000  0.43829130  0.60801746  1
  C  C49  1  0.50000000  0.43952781  0.97010225  1
  C  C50  1  0.50000000  0.43872959  0.72965856  1
  C  C51  1  0.50000000  0.43853404  0.85118258  1
  C  C52  1  0.50000000  0.37701083  0.02049114  1
  C  C53  1  0.50000000  0.37675972  0.52249622  1
  C  C54  1  0.50000000  0.37689729  0.39379101  1
  C  C55  1  0.50000000  0.37720768  0.89242938  1
  C  C56  1  0.50000000  0.37698162  0.14752052  1
  C  C57  1  0.50000000  0.37743138  0.64812325  1
  C  C58  1  0.50000000  0.37707313  0.27079515  1
  C  C59  1  0.50000000  0.37758528  0.77015677  1
  C  C60  1  0.50000000  0.40579523  0.04467048  1
  C  C61  1  0.50000000  0.40744600  0.54531216  1
  C  C62  1  0.50000000  0.40589594  0.41580460  1
  C  C63  1  0.50000000  0.40749178  0.91288561  1
  C  C64  1  0.50000000  0.40682312  0.16856168  1
  C  C65  1  0.50000000  0.40792451  0.66868046  1
  C  C66  1  0.50000000  0.40688268  0.29196395  1
  C  C67  1  0.50000000  0.40807764  0.79044791  1
  C  C68  1  0.50000000  0.46955115  0.58945588  1
  C  C69  1  0.50000000  0.46982537  0.95055302  1
  C  C70  1  0.50000000  0.46945036  0.70951254  1
  C  C71  1  0.50000000  0.46934069  0.83073308  1
  C  C72  1  0.50000000  0.50025740  0.60927247  1
  C  C73  1  0.50000000  0.50003441  0.97047623  1
  C  C74  1  0.50000000  0.50023818  0.72969950  1
  C  C75  1  0.50000000  0.50029463  0.85028847  1
  C  C76  1  0.50000000  0.43946858  0.52972137  1
  C  C77  1  0.50000000  0.43832032  0.89176889  1
  C  C78  1  0.50000000  0.43852267  0.64861134  1
  C  C79  1  0.50000000  0.43873571  0.77014776  1
  C  C80  1  0.50000000  0.46979724  0.54924091  1
  C  C81  1  0.50000000  0.46957777  0.91034200  1
  C  C82  1  0.50000000  0.46932146  0.66908226  1
  C  C83  1  0.50000000  0.46945528  0.79030208  1
  C  C84  1  0.50000000  0.53085394  0.58909591  1
  C  C85  1  0.50000000  0.53079486  0.95157812  1
  C  C86  1  0.50000000  0.53108178  0.70980493  1
  C  C87  1  0.50000000  0.53107862  0.83035613  1
  C  C88  1  0.50000000  0.56161681  0.60893663  1
  C  C89  1  0.50000000  0.56121780  0.97114598  1
  C  C90  1  0.50000000  0.56194202  0.72978993  1
  C  C91  1  0.50000000  0.56177651  0.85056144  1
  C  C92  1  0.50000000  0.50003548  0.52936343  1
  C  C93  1  0.50000000  0.50028417  0.89055302  1
  C  C94  1  0.50000000  0.50027465  0.64954071  1
  C  C95  1  0.50000000  0.50024531  0.77014341  1
  C  C96  1  0.50000000  0.53080500  0.54827274  1
  C  C97  1  0.50000000  0.53087066  0.91076079  1
  C  C98  1  0.50000000  0.53106047  0.66949603  1
  C  C99  1  0.50000000  0.53108564  0.79005105  1
  C  C100  1  0.50000000  0.59226448  0.58871415  1
  C  C101  1  0.50000000  0.59193360  0.95203818  1
  C  C102  1  0.50000000  0.59271708  0.70970760  1
  C  C103  1  0.50000000  0.59265202  0.83070734  1
  C  C104  1  0.50000000  0.62298951  0.60844798  1
  C  C105  1  0.50000000  0.62228954  0.97175567  1
  C  C106  1  0.50000000  0.62341169  0.72975121  1
  C  C107  1  0.50000000  0.62320230  0.85098396  1
  C  C108  1  0.50000000  0.56124681  0.52871277  1
  C  C109  1  0.50000000  0.56163431  0.89094657  1
  C  C110  1  0.50000000  0.56176709  0.64932439  1
  C  C111  1  0.50000000  0.56194336  0.77007938  1
  C  C112  1  0.50000000  0.59195221  0.54786350  1
  C  C113  1  0.50000000  0.59227575  0.91118671  1
  C  C114  1  0.50000000  0.59264444  0.66919885  1
  C  C115  1  0.50000000  0.59270697  0.79019632  1
  C  C116  1  0.50000000  0.65364590  0.58789898  1
  C  C117  1  0.50000000  0.65304969  0.95280521  1
  C  C118  1  0.50000000  0.65428125  0.70941891  1
  C  C119  1  0.50000000  0.65420629  0.83107344  1
  C  C120  1  0.50000000  0.68475562  0.60728060  1
  C  C121  1  0.50000000  0.68355555  0.97301291  1
  C  C122  1  0.50000000  0.68501272  0.72949613  1
  C  C123  1  0.50000000  0.68486486  0.85149106  1
  C  C124  1  0.50000000  0.62233236  0.52819810  1
  C  C125  1  0.50000000  0.62301267  0.89148701  1
  C  C126  1  0.50000000  0.62319485  0.64894649  1
  C  C127  1  0.50000000  0.62340082  0.77016804  1
  C  C128  1  0.50000000  0.65307988  0.54718167  1
  C  C129  1  0.50000000  0.65365556  0.91207154  1
  C  C130  1  0.50000000  0.65421138  0.66885773  1
  C  C131  1  0.50000000  0.65426139  0.79052122  1
  C  C132  1  0.50000000  0.71426278  0.58582595  1
  C  C133  1  0.50000000  0.71361603  0.95382080  1
  C  C134  1  0.50000000  0.71478166  0.70839190  1
  C  C135  1  0.50000000  0.71469249  0.83063463  1
  C  C136  1  0.50000000  0.68358939  0.52698534  1
  C  C137  1  0.50000000  0.68476926  0.89268601  1
  C  C138  1  0.50000000  0.68487017  0.64846152  1
  C  C139  1  0.50000000  0.68499899  0.77046693  1
  C  C140  1  0.50000000  0.71364124  0.54618834  1
  C  C141  1  0.50000000  0.71427285  0.91417322  1
  C  C142  1  0.50000000  0.71469651  0.66932501  1
  C  C143  1  0.50000000  0.71477077  0.79157089  1
  H  H144  1  0.50000000  0.26160903  0.60486604  1
  H  H145  1  0.50000000  0.26047268  0.96496747  1
  H  H146  1  0.50000000  0.26245334  0.72339494  1
  H  H147  1  0.50000000  0.26226708  0.84414079  1
  H  H148  1  0.50000000  0.26036698  0.53507290  1
  H  H149  1  0.50000000  0.26164581  0.89504476  1
  H  H150  1  0.50000000  0.26227313  0.65573431  1
  H  H151  1  0.50000000  0.26243651  0.77648465  1
  H  H152  1  0.50000000  0.73843448  0.59997789  1
  H  H153  1  0.50000000  0.73705127  0.96968581  1
  H  H154  1  0.50000000  0.73885872  0.72270302  1
  H  H155  1  0.50000000  0.73866639  0.84521972  1
  H  H156  1  0.50000000  0.73710933  0.53039654  1
  H  H157  1  0.50000000  0.73845299  0.90002886  1
  H  H158  1  0.50000000  0.73867647  0.65475661  1
  H  H159  1  0.50000000  0.73881836  0.77719131  1
  H  H160  1  0.50000000  0.30966193  -0.00006065  1
  H  H161  1  0.50000000  0.32332187  0.09713554  1
  H  H162  1  0.50000000  0.32303481  0.46554734  1
  H  H163  1  0.50000000  0.32310758  0.22226422  1
  H  H164  1  0.50000000  0.32326898  0.34579901  1
  H  H165  1  0.50000000  0.30957953  0.49987681  1
  H  H166  1  0.50000000  0.32310217  0.03414365  1
  H  H167  1  0.50000000  0.32330273  0.40253942  1
  H  H168  1  0.50000000  0.32320179  0.15406001  1
  H  H169  1  0.50000000  0.32313840  0.27762292  1
  H  H170  1  0.50000000  0.43054534  0.09725730  1
  H  H171  1  0.50000000  0.43105692  0.46504318  1
  H  H172  1  0.50000000  0.43098589  0.22215374  1
  H  H173  1  0.50000000  0.43092212  0.34577225  1
  H  H174  1  0.50000000  0.44331289  -0.00005326  1
  H  H175  1  0.50000000  0.43106316  0.03468955  1
  H  H176  1  0.50000000  0.43044607  0.40244602  1
  H  H177  1  0.50000000  0.43086266  0.15402738  1
  H  H178  1  0.50000000  0.43105535  0.27773216  1
  H  H179  1  0.50000000  0.49969398  0.00144522  1
  H  H180  1  0.50000000  0.44308973  0.49987154  1
  H  H181  1  0.50000000  0.56112208  0.00212345  1
  H  H182  1  0.50000000  0.49973904  0.49839894  1
  H  H183  1  0.50000000  0.62190067  0.00274682  1
  H  H184  1  0.50000000  0.56118031  0.49772260  1
  H  H185  1  0.50000000  0.68287358  0.00396001  1
  H  H186  1  0.50000000  0.62195089  0.49721249  1
  H  H187  1  0.50000000  0.68289991  0.49603997  1
