# generated using pymatgen
data_H7C24
_symmetry_space_group_name_H-M   'P 1'
_cell_length_a   20.00000000
_cell_length_b   40.19450000
_cell_length_c   34.61366040
_cell_angle_alpha   90.00000000
_cell_angle_beta   90.00000000
_cell_angle_gamma   90.00000000
_symmetry_Int_Tables_number   1
_chemical_formula_structural   H7C24
_chemical_formula_sum   'H42 C144'
_cell_volume   27825.57545697
_cell_formula_units_Z   6
loop_
 _symmetry_equiv_pos_site_id
 _symmetry_equiv_pos_as_xyz
  1  'x, y, z'
loop_
 _atom_site_type_symbol
 _atom_site_label
 _atom_site_symmetry_multiplicity
 _atom_site_fract_x
 _atom_site_fract_y
 _atom_site_fract_z
 _atom_site_occupancy
  C  C0  1  0.50000000  0.28524570  0.58393773  1
  C  C1  1  0.50000000  0.28521834  0.95625540  1
  C  C2  1  0.50000000  0.28577894  0.70789529  1
  C  C3  1  0.50000000  0.28578763  0.83183351  1
  C  C4  1  0.50000000  0.31528658  0.60480315  1
  C  C5  1  0.50000000  0.31517776  0.97642501  1
  C  C6  1  0.50000000  0.31575488  0.72903668  1
  C  C7  1  0.50000000  0.31562880  0.85320163  1
  C  C8  1  0.50000000  0.28515120  0.54375930  1
  C  C9  1  0.50000000  0.28527322  0.91607540  1
  C  C10  1  0.50000000  0.28573207  0.66804337  1
  C  C11  1  0.50000000  0.28581875  0.79198286  1
  C  C12  1  0.50000000  0.34608414  0.58421064  1
  C  C13  1  0.50000000  0.34588135  0.95695168  1
  C  C14  1  0.50000000  0.34642699  0.70846858  1
  C  C15  1  0.50000000  0.34637276  0.83279392  1
  C  C16  1  0.50000000  0.37778249  0.10368965  1
  C  C17  1  0.50000000  0.37717348  0.60500550  1
  C  C18  1  0.50000000  0.37804459  0.48161907  1
  C  C19  1  0.50000000  0.37732876  0.97786497  1
  C  C20  1  0.50000000  0.37755449  0.22987806  1
  C  C21  1  0.50000000  0.37730109  0.72926814  1
  C  C22  1  0.50000000  0.37778069  0.35604251  1
  C  C23  1  0.50000000  0.37726926  0.85358464  1
  C  C24  1  0.50000000  0.31509143  0.52353848  1
  C  C25  1  0.50000000  0.31530834  0.89515878  1
  C  C26  1  0.50000000  0.31556953  0.64670168  1
  C  C27  1  0.50000000  0.31576507  0.77080544  1
  C  C28  1  0.50000000  0.34579679  0.54298273  1
  C  C29  1  0.50000000  0.34612615  0.91571503  1
  C  C30  1  0.50000000  0.34633271  0.66706342  1
  C  C31  1  0.50000000  0.34644217  0.79137985  1
  C  C32  1  0.50000000  0.40762240  0.08225841  1
  C  C33  1  0.50000000  0.40781753  0.58455791  1
  C  C34  1  0.50000000  0.40780552  0.46049228  1
  C  C35  1  0.50000000  0.40784896  0.95689086  1
  C  C36  1  0.50000000  0.40729876  0.20825573  1
  C  C37  1  0.50000000  0.40795607  0.70860246  1
  C  C38  1  0.50000000  0.40748793  0.33437483  1
  C  C39  1  0.50000000  0.40792628  0.83281346  1
  C  C40  1  0.50000000  0.43730811  0.10392555  1
  C  C41  1  0.50000000  0.43865465  0.60523194  1
  C  C42  1  0.50000000  0.43760347  0.48164334  1
  C  C43  1  0.50000000  0.43834834  0.97787850  1
  C  C44  1  0.50000000  0.43706429  0.22982913  1
  C  C45  1  0.50000000  0.43870348  0.72925915  1
  C  C46  1  0.50000000  0.43732433  0.35580790  1
  C  C47  1  0.50000000  0.43869522  0.85331676  1
  C  C48  1  0.50000000  0.37806596  0.01832154  1
  C  C49  1  0.50000000  0.37730090  0.52206351  1
  C  C50  1  0.50000000  0.37795031  0.39624768  1
  C  C51  1  0.50000000  0.37719606  0.89489706  1
  C  C52  1  0.50000000  0.37764219  0.14390293  1
  C  C53  1  0.50000000  0.37723966  0.64630617  1
  C  C54  1  0.50000000  0.37758625  0.27010077  1
  C  C55  1  0.50000000  0.37731628  0.77059835  1
  C  C56  1  0.50000000  0.40777851  0.03947198  1
  C  C57  1  0.50000000  0.40783909  0.54303241  1
  C  C58  1  0.50000000  0.40777618  0.41769609  1
  C  C59  1  0.50000000  0.40783618  0.91535136  1
  C  C60  1  0.50000000  0.40735995  0.16555017  1
  C  C61  1  0.50000000  0.40790218  0.66705944  1
  C  C62  1  0.50000000  0.40737069  0.29166595  1
  C  C63  1  0.50000000  0.40797080  0.79126614  1
  C  C64  1  0.50000000  0.46943944  0.58471209  1
  C  C65  1  0.50000000  0.46982805  0.95669041  1
  C  C66  1  0.50000000  0.46953472  0.70866507  1
  C  C67  1  0.50000000  0.46950058  0.83246724  1
  C  C68  1  0.50000000  0.50017597  0.60554496  1
  C  C69  1  0.50000000  0.50019942  0.97575861  1
  C  C70  1  0.50000000  0.50033592  0.72923941  1
  C  C71  1  0.50000000  0.50023731  0.85289629  1
  C  C72  1  0.50000000  0.43759774  0.01834740  1
  C  C73  1  0.50000000  0.43832946  0.52204899  1
  C  C74  1  0.50000000  0.43746763  0.39601046  1
  C  C75  1  0.50000000  0.43866226  0.89464467  1
  C  C76  1  0.50000000  0.43719951  0.14413184  1
  C  C77  1  0.50000000  0.43868027  0.64654982  1
  C  C78  1  0.50000000  0.43710056  0.27003219  1
  C  C79  1  0.50000000  0.43870682  0.77058279  1
  C  C80  1  0.50000000  0.46980509  0.54316365  1
  C  C81  1  0.50000000  0.46945080  0.91514121  1
  C  C82  1  0.50000000  0.46949542  0.66738169  1
  C  C83  1  0.50000000  0.46953559  0.79118000  1
  C  C84  1  0.50000000  0.53093098  0.58540847  1
  C  C85  1  0.50000000  0.53094454  0.95595372  1
  C  C86  1  0.50000000  0.53111689  0.70877588  1
  C  C87  1  0.50000000  0.53105060  0.83235343  1
  C  C88  1  0.50000000  0.56175401  0.60579820  1
  C  C89  1  0.50000000  0.56119379  0.97599109  1
  C  C90  1  0.50000000  0.56203193  0.72931310  1
  C  C91  1  0.50000000  0.56188981  0.85281437  1
  C  C92  1  0.50000000  0.50016989  0.52410856  1
  C  C93  1  0.50000000  0.50017742  0.89430923  1
  C  C94  1  0.50000000  0.50023566  0.64696055  1
  C  C95  1  0.50000000  0.50033287  0.77059856  1
  C  C96  1  0.50000000  0.53094982  0.54389099  1
  C  C97  1  0.50000000  0.53093282  0.91443967  1
  C  C98  1  0.50000000  0.53104832  0.66750688  1
  C  C99  1  0.50000000  0.53111562  0.79107984  1
  C  C100  1  0.50000000  0.59233587  0.58512226  1
  C  C101  1  0.50000000  0.59193831  0.95646874  1
  C  C102  1  0.50000000  0.59287596  0.70881859  1
  C  C103  1  0.50000000  0.59281467  0.83251412  1
  C  C104  1  0.50000000  0.62316308  0.60524815  1
  C  C105  1  0.50000000  0.62218758  0.97671628  1
  C  C106  1  0.50000000  0.62364224  0.72929390  1
  C  C107  1  0.50000000  0.62339961  0.85327149  1
  C  C108  1  0.50000000  0.56122927  0.52385873  1
  C  C109  1  0.50000000  0.56176387  0.89406023  1
  C  C110  1  0.50000000  0.56187847  0.64704495  1
  C  C111  1  0.50000000  0.56204172  0.77056368  1
  C  C112  1  0.50000000  0.59198468  0.54338971  1
  C  C113  1  0.50000000  0.59233726  0.91474600  1
  C  C114  1  0.50000000  0.59278904  0.66737075  1
  C  C115  1  0.50000000  0.59289789  0.79106549  1
  C  C116  1  0.50000000  0.65377361  0.58414937  1
  C  C117  1  0.50000000  0.65300478  0.95749735  1
  C  C118  1  0.50000000  0.65454268  0.70846686  1
  C  C119  1  0.50000000  0.65448428  0.83295920  1
  C  C120  1  0.50000000  0.68494827  0.60393594  1
  C  C121  1  0.50000000  0.68338888  0.97836364  1
  C  C122  1  0.50000000  0.68530985  0.72901117  1
  C  C123  1  0.50000000  0.68512498  0.85391392  1
  C  C124  1  0.50000000  0.62227755  0.52320136  1
  C  C125  1  0.50000000  0.62317819  0.89465823  1
  C  C126  1  0.50000000  0.62336456  0.64663696  1
  C  C127  1  0.50000000  0.62367905  0.77063181  1
  C  C128  1  0.50000000  0.65307058  0.54247316  1
  C  C129  1  0.50000000  0.65376773  0.91580910  1
  C  C130  1  0.50000000  0.65443436  0.66697636  1
  C  C131  1  0.50000000  0.65459702  0.79146478  1
  C  C132  1  0.50000000  0.71436508  0.58179622  1
  C  C133  1  0.50000000  0.71348065  0.95883170  1
  C  C134  1  0.50000000  0.71508609  0.70736390  1
  C  C135  1  0.50000000  0.71500954  0.83259237  1
  C  C136  1  0.50000000  0.68349319  0.52165567  1
  C  C137  1  0.50000000  0.68497009  0.89606809  1
  C  C138  1  0.50000000  0.68507640  0.64607382  1
  C  C139  1  0.50000000  0.68536018  0.77096066  1
  C  C140  1  0.50000000  0.71356531  0.54125299  1
  C  C141  1  0.50000000  0.71435607  0.91828009  1
  C  C142  1  0.50000000  0.71495117  0.66738528  1
  C  C143  1  0.50000000  0.71514322  0.79261071  1
  H  H144  1  0.50000000  0.26138348  0.59904345  1
  H  H145  1  0.50000000  0.26160630  0.97210306  1
  H  H146  1  0.50000000  0.26185041  0.72290104  1
  H  H147  1  0.50000000  0.26179353  0.84665684  1
  H  H148  1  0.50000000  0.26152372  0.52792005  1
  H  H149  1  0.50000000  0.26141804  0.90098572  1
  H  H150  1  0.50000000  0.26176959  0.65313956  1
  H  H151  1  0.50000000  0.26187225  0.77703657  1
  H  H152  1  0.50000000  0.73868335  0.59593663  1
  H  H153  1  0.50000000  0.73685352  0.97512922  1
  H  H154  1  0.50000000  0.73911111  0.72214983  1
  H  H155  1  0.50000000  0.73889207  0.84774278  1
  H  H156  1  0.50000000  0.73701449  0.52508924  1
  H  H157  1  0.50000000  0.73871231  0.90422324  1
  H  H158  1  0.50000000  0.73880458  0.65219267  1
  H  H159  1  0.50000000  0.73917533  0.77783870  1
  H  H160  1  0.50000000  0.31424187  0.00797031  1
  H  H161  1  0.50000000  0.35364961  0.08905017  1
  H  H162  1  0.50000000  0.35451400  0.46599029  1
  H  H163  1  0.50000000  0.35338171  0.21533077  1
  H  H164  1  0.50000000  0.35362755  0.34143418  1
  H  H165  1  0.50000000  0.31413746  0.49200446  1
  H  H166  1  0.50000000  0.46149274  0.08944932  1
  H  H167  1  0.50000000  0.46107757  0.46592815  1
  H  H168  1  0.50000000  0.46119191  0.21523486  1
  H  H169  1  0.50000000  0.46138232  0.34103952  1
  H  H170  1  0.50000000  0.35455662  0.03395206  1
  H  H171  1  0.50000000  0.35383558  0.41092086  1
  H  H172  1  0.50000000  0.35350696  0.15855646  1
  H  H173  1  0.50000000  0.35342495  0.28467260  1
  H  H174  1  0.50000000  0.50120897  0.00731956  1
  H  H175  1  0.50000000  0.46107935  0.03406642  1
  H  H176  1  0.50000000  0.46169948  0.41040531  1
  H  H177  1  0.50000000  0.46123622  0.15894365  1
  H  H178  1  0.50000000  0.46124658  0.28459855  1
  H  H179  1  0.50000000  0.56114170  0.00766971  1
  H  H180  1  0.50000000  0.50118205  0.49254433  1
  H  H181  1  0.50000000  0.62163059  0.00838119  1
  H  H182  1  0.50000000  0.56115127  0.49218357  1
  H  H183  1  0.50000000  0.68258461  0.01003674  1
  H  H184  1  0.50000000  0.62184371  0.49153991  1
  H  H185  1  0.50000000  0.68272267  0.48997883  1
