# generated using pymatgen
data_H7C24
_symmetry_space_group_name_H-M   'P 1'
_cell_length_a   20.00000000
_cell_length_b   40.19450000
_cell_length_c   34.61492714
_cell_angle_alpha   90.00000000
_cell_angle_beta   90.00000000
_cell_angle_gamma   90.00000000
_symmetry_Int_Tables_number   1
_chemical_formula_structural   H7C24
_chemical_formula_sum   'H42 C144'
_cell_volume   27826.59377912
_cell_formula_units_Z   6
loop_
 _symmetry_equiv_pos_site_id
 _symmetry_equiv_pos_as_xyz
  1  'x, y, z'
loop_
 _atom_site_type_symbol
 _atom_site_label
 _atom_site_symmetry_multiplicity
 _atom_site_fract_x
 _atom_site_fract_y
 _atom_site_fract_z
 _atom_site_occupancy
  C  C0  1  0.50000000  0.28554793  0.58279897  1
  C  C1  1  0.50000000  0.28610260  0.95774010  1
  C  C2  1  0.50000000  0.28541555  0.70777986  1
  C  C3  1  0.50000000  0.28542392  0.83212103  1
  C  C4  1  0.50000000  0.31509760  0.60452859  1
  C  C5  1  0.50000000  0.31614854  0.97744200  1
  C  C6  1  0.50000000  0.31534162  0.72902404  1
  C  C7  1  0.50000000  0.31524889  0.85345453  1
  C  C8  1  0.50000000  0.28591711  0.54231109  1
  C  C9  1  0.50000000  0.28561724  0.91725265  1
  C  C10  1  0.50000000  0.28540057  0.66785131  1
  C  C11  1  0.50000000  0.28543567  0.79218858  1
  C  C12  1  0.50000000  0.34615210  0.58460935  1
  C  C13  1  0.50000000  0.34646771  0.95670453  1
  C  C14  1  0.50000000  0.34607162  0.70847646  1
  C  C15  1  0.50000000  0.34603809  0.83283942  1
  C  C16  1  0.50000000  0.37699889  0.60517990  1
  C  C17  1  0.50000000  0.37726817  0.97618751  1
  C  C18  1  0.50000000  0.37696755  0.72923313  1
  C  C19  1  0.50000000  0.37704291  0.85328148  1
  C  C20  1  0.50000000  0.31595097  0.52256559  1
  C  C21  1  0.50000000  0.31513663  0.89546211  1
  C  C22  1  0.50000000  0.31522591  0.64652307  1
  C  C23  1  0.50000000  0.31532476  0.77084222  1
  C  C24  1  0.50000000  0.34633771  0.54324545  1
  C  C25  1  0.50000000  0.34622541  0.91534233  1
  C  C26  1  0.50000000  0.34604241  0.66705635  1
  C  C27  1  0.50000000  0.34606182  0.79139065  1
  C  C28  1  0.50000000  0.40767072  0.58458702  1
  C  C29  1  0.50000000  0.40745901  0.95681668  1
  C  C30  1  0.50000000  0.40766051  0.70866967  1
  C  C31  1  0.50000000  0.40765533  0.83267735  1
  C  C32  1  0.50000000  0.43941632  0.10364256  1
  C  C33  1  0.50000000  0.43854177  0.60520834  1
  C  C34  1  0.50000000  0.43962768  0.48169005  1
  C  C35  1  0.50000000  0.43893061  0.97780955  1
  C  C36  1  0.50000000  0.43932252  0.22988493  1
  C  C37  1  0.50000000  0.43846734  0.72924597  1
  C  C38  1  0.50000000  0.43938882  0.35608512  1
  C  C39  1  0.50000000  0.43850289  0.85328661  1
  C  C40  1  0.50000000  0.37714763  0.52375203  1
  C  C41  1  0.50000000  0.37702919  0.89471006  1
  C  C42  1  0.50000000  0.37702932  0.64659534  1
  C  C43  1  0.50000000  0.37695935  0.77061632  1
  C  C44  1  0.50000000  0.40740507  0.54306877  1
  C  C45  1  0.50000000  0.40769859  0.91528389  1
  C  C46  1  0.50000000  0.40765908  0.66716040  1
  C  C47  1  0.50000000  0.40765637  0.79116738  1
  C  C48  1  0.50000000  0.46924374  0.08215153  1
  C  C49  1  0.50000000  0.46929388  0.58465368  1
  C  C50  1  0.50000000  0.46939712  0.46055837  1
  C  C51  1  0.50000000  0.46933644  0.95672332  1
  C  C52  1  0.50000000  0.46904648  0.20821563  1
  C  C53  1  0.50000000  0.46927398  0.70860675  1
  C  C54  1  0.50000000  0.46912664  0.33446085  1
  C  C55  1  0.50000000  0.46927489  0.83258677  1
  C  C56  1  0.50000000  0.49894922  0.10379700  1
  C  C57  1  0.50000000  0.50003298  0.60528548  1
  C  C58  1  0.50000000  0.49914745  0.48171071  1
  C  C59  1  0.50000000  0.49979309  0.97770827  1
  C  C60  1  0.50000000  0.49877931  0.22985881  1
  C  C61  1  0.50000000  0.50004699  0.72920039  1
  C  C62  1  0.50000000  0.49893147  0.35595079  1
  C  C63  1  0.50000000  0.50005940  0.85313434  1
  C  C64  1  0.50000000  0.43964335  0.01821680  1
  C  C65  1  0.50000000  0.43888979  0.52208314  1
  C  C66  1  0.50000000  0.43949629  0.39629425  1
  C  C67  1  0.50000000  0.43854943  0.89462720  1
  C  C68  1  0.50000000  0.43934291  0.14386291  1
  C  C69  1  0.50000000  0.43851115  0.64654714  1
  C  C70  1  0.50000000  0.43932793  0.27011753  1
  C  C71  1  0.50000000  0.43846554  0.77057822  1
  C  C72  1  0.50000000  0.46939642  0.03935453  1
  C  C73  1  0.50000000  0.46932186  0.54312928  1
  C  C74  1  0.50000000  0.46930879  0.41778952  1
  C  C75  1  0.50000000  0.46928813  0.91518743  1
  C  C76  1  0.50000000  0.46908424  0.16548305  1
  C  C77  1  0.50000000  0.46928310  0.66722610  1
  C  C78  1  0.50000000  0.46907391  0.29173978  1
  C  C79  1  0.50000000  0.46927469  0.79120060  1
  C  C80  1  0.50000000  0.53084136  0.58479044  1
  C  C81  1  0.50000000  0.53119637  0.95658527  1
  C  C82  1  0.50000000  0.53088005  0.70869854  1
  C  C83  1  0.50000000  0.53086522  0.83243607  1
  C  C84  1  0.50000000  0.56156158  0.60555571  1
  C  C85  1  0.50000000  0.56144485  0.97575094  1
  C  C86  1  0.50000000  0.56176719  0.72927289  1
  C  C87  1  0.50000000  0.56166272  0.85293130  1
  C  C88  1  0.50000000  0.49914453  0.01817979  1
  C  C89  1  0.50000000  0.49980138  0.52215183  1
  C  C90  1  0.50000000  0.49901816  0.39614930  1
  C  C91  1  0.50000000  0.50002705  0.89454894  1
  C  C92  1  0.50000000  0.49888856  0.14399722  1
  C  C93  1  0.50000000  0.50006442  0.64668452  1
  C  C94  1  0.50000000  0.49879344  0.27008196  1
  C  C95  1  0.50000000  0.50004919  0.77059399  1
  C  C96  1  0.50000000  0.53121763  0.54325826  1
  C  C97  1  0.50000000  0.53082630  0.91505721  1
  C  C98  1  0.50000000  0.53086267  0.66738013  1
  C  C99  1  0.50000000  0.53088242  0.79111548  1
  C  C100  1  0.50000000  0.59236240  0.58528219  1
  C  C101  1  0.50000000  0.59219837  0.95608338  1
  C  C102  1  0.50000000  0.59261851  0.70878257  1
  C  C103  1  0.50000000  0.59258634  0.83253215  1
  C  C104  1  0.50000000  0.62314980  0.60545250  1
  C  C105  1  0.50000000  0.62224593  0.97647595  1
  C  C106  1  0.50000000  0.62338941  0.72928897  1
  C  C107  1  0.50000000  0.62325334  0.85312106  1
  C  C108  1  0.50000000  0.56149810  0.52410857  1
  C  C109  1  0.50000000  0.56154373  0.89428423  1
  C  C110  1  0.50000000  0.56165038  0.64689640  1
  C  C111  1  0.50000000  0.56177800  0.77057015  1
  C  C112  1  0.50000000  0.59226816  0.54378219  1
  C  C113  1  0.50000000  0.59232914  0.91458401  1
  C  C114  1  0.50000000  0.59255635  0.66733253  1
  C  C115  1  0.50000000  0.59263443  0.79108387  1
  C  C116  1  0.50000000  0.65374078  0.58437541  1
  C  C117  1  0.50000000  0.65306065  0.95724283  1
  C  C118  1  0.50000000  0.65432637  0.70855316  1
  C  C119  1  0.50000000  0.65430220  0.83283908  1
  C  C120  1  0.50000000  0.68491569  0.60416548  1
  C  C121  1  0.50000000  0.68344297  0.97806965  1
  C  C122  1  0.50000000  0.68510447  0.72902943  1
  C  C123  1  0.50000000  0.68496927  0.85374357  1
  C  C124  1  0.50000000  0.62238716  0.52350137  1
  C  C125  1  0.50000000  0.62312663  0.89446287  1
  C  C126  1  0.50000000  0.62323766  0.64679344  1
  C  C127  1  0.50000000  0.62340647  0.77061138  1
  C  C128  1  0.50000000  0.65319581  0.54276196  1
  C  C129  1  0.50000000  0.65367727  0.91560505  1
  C  C130  1  0.50000000  0.65428219  0.66710369  1
  C  C131  1  0.50000000  0.65433421  0.79138989  1
  C  C132  1  0.50000000  0.71436142  0.58215557  1
  C  C133  1  0.50000000  0.71350934  0.95849279  1
  C  C134  1  0.50000000  0.71491826  0.70749885  1
  C  C135  1  0.50000000  0.71484040  0.83246379  1
  C  C136  1  0.50000000  0.68362495  0.52198052  1
  C  C137  1  0.50000000  0.68488024  0.89585268  1
  C  C138  1  0.50000000  0.68496784  0.64625926  1
  C  C139  1  0.50000000  0.68510300  0.77092016  1
  C  C140  1  0.50000000  0.71367430  0.54161037  1
  C  C141  1  0.50000000  0.71429091  0.91794515  1
  C  C142  1  0.50000000  0.71483554  0.66754599  1
  C  C143  1  0.50000000  0.71489809  0.79250468  1
  H  H144  1  0.50000000  0.26145608  0.59744559  1
  H  H145  1  0.50000000  0.26255809  0.97368287  1
  H  H146  1  0.50000000  0.26145054  0.72272819  1
  H  H147  1  0.50000000  0.26148188  0.84713295  1
  H  H148  1  0.50000000  0.26229364  0.52647373  1
  H  H149  1  0.50000000  0.26145799  0.90272283  1
  H  H150  1  0.50000000  0.26148481  0.65278401  1
  H  H151  1  0.50000000  0.26145894  0.77727912  1
  H  H152  1  0.50000000  0.73861836  0.59644003  1
  H  H153  1  0.50000000  0.73696006  0.97464946  1
  H  H154  1  0.50000000  0.73889986  0.72237882  1
  H  H155  1  0.50000000  0.73875327  0.84755680  1
  H  H156  1  0.50000000  0.73718973  0.52557174  1
  H  H157  1  0.50000000  0.73860966  0.90378805  1
  H  H158  1  0.50000000  0.73871406  0.65240479  1
  H  H159  1  0.50000000  0.73889187  0.77766788  1
  H  H160  1  0.50000000  0.31690936  0.00909983  1
  H  H161  1  0.50000000  0.37640065  0.00775092  1
  H  H162  1  0.50000000  0.31664264  0.49089958  1
  H  H163  1  0.50000000  0.41524653  0.08906702  1
  H  H164  1  0.50000000  0.41610524  0.46606025  1
  H  H165  1  0.50000000  0.41514125  0.21537051  1
  H  H166  1  0.50000000  0.41524924  0.34144285  1
  H  H167  1  0.50000000  0.37626986  0.49219660  1
  H  H168  1  0.50000000  0.52314368  0.08931117  1
  H  H169  1  0.50000000  0.52268607  0.46609061  1
  H  H170  1  0.50000000  0.52294741  0.21532898  1
  H  H171  1  0.50000000  0.52300532  0.34120752  1
  H  H172  1  0.50000000  0.41609095  0.03382936  1
  H  H173  1  0.50000000  0.41531726  0.41083177  1
  H  H174  1  0.50000000  0.41523881  0.15857091  1
  H  H175  1  0.50000000  0.41516395  0.28468413  1
  H  H176  1  0.50000000  0.56243395  0.00729893  1
  H  H177  1  0.50000000  0.52266188  0.03384595  1
  H  H178  1  0.50000000  0.52325601  0.41053324  1
  H  H179  1  0.50000000  0.52294051  0.15879498  1
  H  H180  1  0.50000000  0.52296033  0.28462070  1
  H  H181  1  0.50000000  0.62165339  0.00815317  1
  H  H182  1  0.50000000  0.56247471  0.49255959  1
  H  H183  1  0.50000000  0.68265682  0.00974314  1
  H  H184  1  0.50000000  0.62198732  0.49184430  1
  H  H185  1  0.50000000  0.68286241  0.49030931  1
