# generated using pymatgen
data_H11C36
_symmetry_space_group_name_H-M   'P 1'
_cell_length_a   20.00000000
_cell_length_b   40.19450000
_cell_length_c   35.42526694
_cell_angle_alpha   90.00000000
_cell_angle_beta   90.00000000
_cell_angle_gamma   90.00000000
_symmetry_Int_Tables_number   1
_chemical_formula_structural   H11C36
_chemical_formula_sum   'H44 C144'
_cell_volume   28478.01783701
_cell_formula_units_Z   4
loop_
 _symmetry_equiv_pos_site_id
 _symmetry_equiv_pos_as_xyz
  1  'x, y, z'
loop_
 _atom_site_type_symbol
 _atom_site_label
 _atom_site_symmetry_multiplicity
 _atom_site_fract_x
 _atom_site_fract_y
 _atom_site_fract_z
 _atom_site_occupancy
  C  C0  1  0.50000000  0.28504518  0.58774915  1
  C  C1  1  0.50000000  0.28517384  0.95187733  1
  C  C2  1  0.50000000  0.28570557  0.70910509  1
  C  C3  1  0.50000000  0.28548805  0.82968397  1
  C  C4  1  0.50000000  0.31486300  0.60864078  1
  C  C5  1  0.50000000  0.31515855  0.97119199  1
  C  C6  1  0.50000000  0.31578110  0.72955930  1
  C  C7  1  0.50000000  0.31527903  0.85052791  1
  C  C8  1  0.50000000  0.28511356  0.54821427  1
  C  C9  1  0.50000000  0.28505980  0.91233513  1
  C  C10  1  0.50000000  0.28553622  0.67025105  1
  C  C11  1  0.50000000  0.28568066  0.79081324  1
  C  C12  1  0.50000000  0.34573343  0.58910041  1
  C  C13  1  0.50000000  0.34556387  0.95087110  1
  C  C14  1  0.50000000  0.34644743  0.70940769  1
  C  C15  1  0.50000000  0.34629327  0.83101528  1
  C  C16  1  0.50000000  0.37725302  0.60784029  1
  C  C17  1  0.50000000  0.37586407  0.97034543  1
  C  C18  1  0.50000000  0.37725028  0.72973089  1
  C  C19  1  0.50000000  0.37720981  0.85144097  1
  C  C20  1  0.50000000  0.31506802  0.52882834  1
  C  C21  1  0.50000000  0.31482052  0.89134010  1
  C  C22  1  0.50000000  0.31533548  0.64943416  1
  C  C23  1  0.50000000  0.31575589  0.77036311  1
  C  C24  1  0.50000000  0.34552917  0.54906830  1
  C  C25  1  0.50000000  0.34571675  0.91083808  1
  C  C26  1  0.50000000  0.34635019  0.66891657  1
  C  C27  1  0.50000000  0.34641143  0.79052562  1
  C  C28  1  0.50000000  0.41003789  0.08422829  1
  C  C29  1  0.50000000  0.40785789  0.58685282  1
  C  C30  1  0.50000000  0.41011833  0.45494141  1
  C  C31  1  0.50000000  0.40779878  0.95462066  1
  C  C32  1  0.50000000  0.40959481  0.20802407  1
  C  C33  1  0.50000000  0.40780252  0.70940223  1
  C  C34  1  0.50000000  0.40952383  0.33112710  1
  C  C35  1  0.50000000  0.40775233  0.83122224  1
  C  C36  1  0.50000000  0.43914456  0.10614257  1
  C  C37  1  0.50000000  0.43836030  0.60758135  1
  C  C38  1  0.50000000  0.43881004  0.47929726  1
  C  C39  1  0.50000000  0.43848603  0.97738785  1
  C  C40  1  0.50000000  0.43943276  0.22912171  1
  C  C41  1  0.50000000  0.43843712  0.72968216  1
  C  C42  1  0.50000000  0.43930343  0.35229340  1
  C  C43  1  0.50000000  0.43837877  0.85159532  1
  C  C44  1  0.50000000  0.37582667  0.52957102  1
  C  C45  1  0.50000000  0.37722418  0.89207707  1
  C  C46  1  0.50000000  0.37725314  0.64847761  1
  C  C47  1  0.50000000  0.37723338  0.77021444  1
  C  C48  1  0.50000000  0.41010443  0.04493055  1
  C  C49  1  0.50000000  0.40778361  0.54528077  1
  C  C50  1  0.50000000  0.41002742  0.41563912  1
  C  C51  1  0.50000000  0.40783574  0.91304654  1
  C  C52  1  0.50000000  0.40951920  0.16877382  1
  C  C53  1  0.50000000  0.40777616  0.66869476  1
  C  C54  1  0.50000000  0.40959924  0.29187914  1
  C  C55  1  0.50000000  0.40778706  0.79051805  1
  C  C56  1  0.50000000  0.46808148  0.08397350  1
  C  C57  1  0.50000000  0.46880289  0.58709861  1
  C  C58  1  0.50000000  0.46773444  0.45520216  1
  C  C59  1  0.50000000  0.46896330  0.95435376  1
  C  C60  1  0.50000000  0.46921533  0.20791432  1
  C  C61  1  0.50000000  0.46908817  0.70935778  1
  C  C62  1  0.50000000  0.46917096  0.33125531  1
  C  C63  1  0.50000000  0.46898907  0.83105920  1
  C  C64  1  0.50000000  0.49952354  0.60820128  1
  C  C65  1  0.50000000  0.50089526  0.96993478  1
  C  C66  1  0.50000000  0.49976108  0.72968060  1
  C  C67  1  0.50000000  0.49962874  0.85110380  1
  C  C68  1  0.50000000  0.43879276  0.02058064  1
  C  C69  1  0.50000000  0.43847605  0.52250606  1
  C  C70  1  0.50000000  0.43914716  0.39374265  1
  C  C71  1  0.50000000  0.43833367  0.89232318  1
  C  C72  1  0.50000000  0.43929781  0.14760062  1
  C  C73  1  0.50000000  0.43839681  0.64831127  1
  C  C74  1  0.50000000  0.43943325  0.27077915  1
  C  C75  1  0.50000000  0.43842475  0.77022433  1
  C  C76  1  0.50000000  0.46770148  0.04467734  1
  C  C77  1  0.50000000  0.46896375  0.54553798  1
  C  C78  1  0.50000000  0.46809196  0.41590337  1
  C  C79  1  0.50000000  0.46878495  0.91280460  1
  C  C80  1  0.50000000  0.46916343  0.16864149  1
  C  C81  1  0.50000000  0.46900570  0.66883953  1
  C  C82  1  0.50000000  0.46921583  0.29198727  1
  C  C83  1  0.50000000  0.46907860  0.79054390  1
  C  C84  1  0.50000000  0.53084475  0.58966054  1
  C  C85  1  0.50000000  0.53113730  0.95039889  1
  C  C86  1  0.50000000  0.53050015  0.70960997  1
  C  C87  1  0.50000000  0.53043324  0.83074429  1
  C  C88  1  0.50000000  0.56153393  0.60942711  1
  C  C89  1  0.50000000  0.56128935  0.97036216  1
  C  C90  1  0.50000000  0.56137250  0.72977389  1
  C  C91  1  0.50000000  0.56147135  0.85029571  1
  C  C92  1  0.50000000  0.50089018  0.52995259  1
  C  C93  1  0.50000000  0.49951487  0.89169591  1
  C  C94  1  0.50000000  0.49963514  0.64879590  1
  C  C95  1  0.50000000  0.49975985  0.77022728  1
  C  C96  1  0.50000000  0.53112793  0.54948843  1
  C  C97  1  0.50000000  0.53085163  0.91022348  1
  C  C98  1  0.50000000  0.53042797  0.66916980  1
  C  C99  1  0.50000000  0.53050108  0.79030583  1
  C  C100  1  0.50000000  0.59216822  0.58914985  1
  C  C101  1  0.50000000  0.59204319  0.95151507  1
  C  C102  1  0.50000000  0.59228740  0.70985777  1
  C  C103  1  0.50000000  0.59232912  0.83044510  1
  C  C104  1  0.50000000  0.62288911  0.60876255  1
  C  C105  1  0.50000000  0.62235685  0.97125657  1
  C  C106  1  0.50000000  0.62304755  0.72977182  1
  C  C107  1  0.50000000  0.62294328  0.85068841  1
  C  C108  1  0.50000000  0.56127680  0.52952495  1
  C  C109  1  0.50000000  0.56156015  0.89047454  1
  C  C110  1  0.50000000  0.56145724  0.64960503  1
  C  C111  1  0.50000000  0.56137342  0.77012468  1
  C  C112  1  0.50000000  0.59201468  0.54838372  1
  C  C113  1  0.50000000  0.59220672  0.91074728  1
  C  C114  1  0.50000000  0.59231408  0.66943800  1
  C  C115  1  0.50000000  0.59229281  0.79002576  1
  C  C116  1  0.50000000  0.65357462  0.58822350  1
  C  C117  1  0.50000000  0.65310905  0.95233203  1
  C  C118  1  0.50000000  0.65393739  0.70945607  1
  C  C119  1  0.50000000  0.65396402  0.83086380  1
  C  C120  1  0.50000000  0.68468025  0.60757269  1
  C  C121  1  0.50000000  0.68364036  0.97249431  1
  C  C122  1  0.50000000  0.68467021  0.72948074  1
  C  C123  1  0.50000000  0.68467958  0.85116584  1
  C  C124  1  0.50000000  0.62232172  0.52862469  1
  C  C125  1  0.50000000  0.62292159  0.89111287  1
  C  C126  1  0.50000000  0.62292773  0.64918189  1
  C  C127  1  0.50000000  0.62304357  0.77009489  1
  C  C128  1  0.50000000  0.65307610  0.54753495  1
  C  C129  1  0.50000000  0.65360520  0.91164005  1
  C  C130  1  0.50000000  0.65395892  0.66899444  1
  C  C131  1  0.50000000  0.65393428  0.79039936  1
  C  C132  1  0.50000000  0.71424071  0.58619589  1
  C  C133  1  0.50000000  0.71366967  0.95324158  1
  C  C134  1  0.50000000  0.71451286  0.70854117  1
  C  C135  1  0.50000000  0.71449662  0.83031027  1
  C  C136  1  0.50000000  0.68360215  0.52735819  1
  C  C137  1  0.50000000  0.68469978  0.89227367  1
  C  C138  1  0.50000000  0.68467331  0.64868197  1
  C  C139  1  0.50000000  0.68466618  0.77037359  1
  C  C140  1  0.50000000  0.71364163  0.54658841  1
  C  C141  1  0.50000000  0.71426462  0.91363541  1
  C  C142  1  0.50000000  0.71449720  0.66953343  1
  C  C143  1  0.50000000  0.71450629  0.79130482  1
  H  H144  1  0.50000000  0.26107268  0.60231649  1
  H  H145  1  0.50000000  0.26150438  0.96722916  1
  H  H146  1  0.50000000  0.26180971  0.72376659  1
  H  H147  1  0.50000000  0.26156492  0.84433972  1
  H  H148  1  0.50000000  0.26143470  0.53288072  1
  H  H149  1  0.50000000  0.26103736  0.89788689  1
  H  H150  1  0.50000000  0.26159927  0.65563582  1
  H  H151  1  0.50000000  0.26179493  0.77611794  1
  H  H152  1  0.50000000  0.73843393  0.60032419  1
  H  H153  1  0.50000000  0.73714173  0.96901250  1
  H  H154  1  0.50000000  0.73853036  0.72298919  1
  H  H155  1  0.50000000  0.73848175  0.84484600  1
  H  H156  1  0.50000000  0.73712441  0.53082573  1
  H  H157  1  0.50000000  0.73844819  0.89948823  1
  H  H158  1  0.50000000  0.73847801  0.65497664  1
  H  H159  1  0.50000000  0.73851782  0.77685064  1
  H  H160  1  0.50000000  0.31582291  0.00215206  1
  H  H161  1  0.50000000  0.37225905  0.00021404  1
  H  H162  1  0.50000000  0.31561848  0.49786383  1
  H  H163  1  0.50000000  0.38553758  0.09775265  1
  H  H164  1  0.50000000  0.38490550  0.46502356  1
  H  H165  1  0.50000000  0.38551966  0.22243396  1
  H  H166  1  0.50000000  0.38544550  0.34554669  1
  H  H167  1  0.50000000  0.37217133  0.49970695  1
  H  H168  1  0.50000000  0.38487817  0.03488618  1
  H  H169  1  0.50000000  0.38553168  0.40208600  1
  H  H170  1  0.50000000  0.38545185  0.15433975  1
  H  H171  1  0.50000000  0.38550611  0.27751137  1
  H  H172  1  0.50000000  0.49271418  0.09722516  1
  H  H173  1  0.50000000  0.49298272  0.46523550  1
  H  H174  1  0.50000000  0.49332044  0.22228062  1
  H  H175  1  0.50000000  0.49324167  0.34571266  1
  H  H176  1  0.50000000  0.50451082  -0.00024014  1
  H  H177  1  0.50000000  0.49293594  0.03461530  1
  H  H178  1  0.50000000  0.49270606  0.40260037  1
  H  H179  1  0.50000000  0.49320489  0.15412632  1
  H  H180  1  0.50000000  0.49333343  0.27765475  1
  H  H181  1  0.50000000  0.56094006  0.00131502  1
  H  H182  1  0.50000000  0.50453115  0.50013007  1
  H  H183  1  0.50000000  0.62195805  0.00221988  1
  H  H184  1  0.50000000  0.56096835  0.49857187  1
  H  H185  1  0.50000000  0.68302287  0.00344036  1
  H  H186  1  0.50000000  0.62190678  0.49766075  1
  H  H187  1  0.50000000  0.68296087  0.49641510  1
