# generated using pymatgen
data_H21C76
_symmetry_space_group_name_H-M   'P 1'
_cell_length_a   20.00000000
_cell_length_b   40.19450000
_cell_length_c   34.48858135
_cell_angle_alpha   90.00000000
_cell_angle_beta   90.00000000
_cell_angle_gamma   90.00000000
_symmetry_Int_Tables_number   1
_chemical_formula_structural   H21C76
_chemical_formula_sum   'H42 C152'
_cell_volume   27725.02565780
_cell_formula_units_Z   2
loop_
 _symmetry_equiv_pos_site_id
 _symmetry_equiv_pos_as_xyz
  1  'x, y, z'
loop_
 _atom_site_type_symbol
 _atom_site_label
 _atom_site_symmetry_multiplicity
 _atom_site_fract_x
 _atom_site_fract_y
 _atom_site_fract_z
 _atom_site_occupancy
  C  C0  1  0.50000000  0.28513497  0.08199401  1
  C  C1  1  0.50000000  0.28554059  0.58282767  1
  C  C2  1  0.50000000  0.28511809  0.45756548  1
  C  C3  1  0.50000000  0.28520743  0.95673941  1
  C  C4  1  0.50000000  0.28547762  0.20724070  1
  C  C5  1  0.50000000  0.28600418  0.70759299  1
  C  C6  1  0.50000000  0.28546799  0.33229338  1
  C  C7  1  0.50000000  0.28594405  0.83224305  1
  C  C8  1  0.50000000  0.31536994  0.10362976  1
  C  C9  1  0.50000000  0.31575874  0.60428798  1
  C  C10  1  0.50000000  0.31512086  0.47946676  1
  C  C11  1  0.50000000  0.31523219  0.97854417  1
  C  C12  1  0.50000000  0.31564662  0.22891467  1
  C  C13  1  0.50000000  0.31599905  0.72899492  1
  C  C14  1  0.50000000  0.31555770  0.35413731  1
  C  C15  1  0.50000000  0.31588703  0.85370329  1
  C  C16  1  0.50000000  0.28498884  0.04216683  1
  C  C17  1  0.50000000  0.28529431  0.54303532  1
  C  C18  1  0.50000000  0.28528333  0.41775170  1
  C  C19  1  0.50000000  0.28547803  0.91696306  1
  C  C20  1  0.50000000  0.28540330  0.16743455  1
  C  C21  1  0.50000000  0.28597416  0.66765543  1
  C  C22  1  0.50000000  0.28552503  0.29250573  1
  C  C23  1  0.50000000  0.28598701  0.79230215  1
  C  C24  1  0.50000000  0.34595692  0.08285203  1
  C  C25  1  0.50000000  0.34624342  0.58363605  1
  C  C26  1  0.50000000  0.34588796  0.45898834  1
  C  C27  1  0.50000000  0.34596326  0.95778578  1
  C  C28  1  0.50000000  0.34627624  0.20816562  1
  C  C29  1  0.50000000  0.34666678  0.70834412  1
  C  C30  1  0.50000000  0.34625819  0.33349006  1
  C  C31  1  0.50000000  0.34661910  0.83310613  1
  C  C32  1  0.50000000  0.37608269  0.10453647  1
  C  C33  1  0.50000000  0.37740314  0.60450244  1
  C  C34  1  0.50000000  0.37574373  0.48062597  1
  C  C35  1  0.50000000  0.37669645  0.97893729  1
  C  C36  1  0.50000000  0.37639806  0.22992324  1
  C  C37  1  0.50000000  0.37750045  0.72923679  1
  C  C38  1  0.50000000  0.37628663  0.35536329  1
  C  C39  1  0.50000000  0.37744740  0.85395007  1
  C  C40  1  0.50000000  0.31502465  0.02031838  1
  C  C41  1  0.50000000  0.31532035  0.52126055  1
  C  C42  1  0.50000000  0.31548800  0.39608529  1
  C  C43  1  0.50000000  0.31572857  0.89556176  1
  C  C44  1  0.50000000  0.31547206  0.14558385  1
  C  C45  1  0.50000000  0.31589015  0.64614807  1
  C  C46  1  0.50000000  0.31567312  0.27082377  1
  C  C47  1  0.50000000  0.31598558  0.77089438  1
  C  C48  1  0.50000000  0.34580393  0.04078758  1
  C  C49  1  0.50000000  0.34602608  0.54203766  1
  C  C50  1  0.50000000  0.34604663  0.41688799  1
  C  C51  1  0.50000000  0.34620955  0.91619823  1
  C  C52  1  0.50000000  0.34617645  0.16621247  1
  C  C53  1  0.50000000  0.34662287  0.66675431  1
  C  C54  1  0.50000000  0.34632800  0.29154202  1
  C  C55  1  0.50000000  0.34665654  0.79152498  1
  C  C56  1  0.50000000  0.40804911  0.58391543  1
  C  C57  1  0.50000000  0.40837998  0.95778130  1
  C  C58  1  0.50000000  0.40817806  0.70847558  1
  C  C59  1  0.50000000  0.40817029  0.83295166  1
  C  C60  1  0.50000000  0.43879501  0.60483120  1
  C  C61  1  0.50000000  0.43877363  0.97674518  1
  C  C62  1  0.50000000  0.43889422  0.72919171  1
  C  C63  1  0.50000000  0.43883310  0.85343904  1
  C  C64  1  0.50000000  0.37566137  0.01916189  1
  C  C65  1  0.50000000  0.37674829  0.52086921  1
  C  C66  1  0.50000000  0.37617199  0.39520828  1
  C  C67  1  0.50000000  0.37737777  0.89533108  1
  C  C68  1  0.50000000  0.37621528  0.14437592  1
  C  C69  1  0.50000000  0.37745117  0.64590202  1
  C  C70  1  0.50000000  0.37643278  0.26974809  1
  C  C71  1  0.50000000  0.37749737  0.77064045  1
  C  C72  1  0.50000000  0.40841166  0.54203801  1
  C  C73  1  0.50000000  0.40802721  0.91591500  1
  C  C74  1  0.50000000  0.40817214  0.66689543  1
  C  C75  1  0.50000000  0.40818511  0.79137791  1
  C  C76  1  0.50000000  0.46955954  0.58458025  1
  C  C77  1  0.50000000  0.46965675  0.95684324  1
  C  C78  1  0.50000000  0.46967553  0.70854149  1
  C  C79  1  0.50000000  0.46965894  0.83270232  1
  C  C80  1  0.50000000  0.50033953  0.60511839  1
  C  C81  1  0.50000000  0.49997702  0.97685441  1
  C  C82  1  0.50000000  0.50047938  0.72918257  1
  C  C83  1  0.50000000  0.50042958  0.85319159  1
  C  C84  1  0.50000000  0.43877615  0.52299630  1
  C  C85  1  0.50000000  0.43878498  0.89499612  1
  C  C86  1  0.50000000  0.43883289  0.64639833  1
  C  C87  1  0.50000000  0.43890293  0.77066327  1
  C  C88  1  0.50000000  0.46964872  0.54291075  1
  C  C89  1  0.50000000  0.46957678  0.91520042  1
  C  C90  1  0.50000000  0.46964381  0.66713789  1
  C  C91  1  0.50000000  0.46969139  0.79130129  1
  C  C92  1  0.50000000  0.53086932  0.58449995  1
  C  C93  1  0.50000000  0.53074858  0.95716505  1
  C  C94  1  0.50000000  0.53122321  0.70861313  1
  C  C95  1  0.50000000  0.53120232  0.83265918  1
  C  C96  1  0.50000000  0.56170286  0.60497503  1
  C  C97  1  0.50000000  0.56120915  0.97715019  1
  C  C98  1  0.50000000  0.56210042  0.72922012  1
  C  C99  1  0.50000000  0.56194927  0.85336429  1
  C  C100  1  0.50000000  0.49995200  0.52286712  1
  C  C101  1  0.50000000  0.50037867  0.89468272  1
  C  C102  1  0.50000000  0.50040125  0.64662517  1
  C  C103  1  0.50000000  0.50049201  0.77066587  1
  C  C104  1  0.50000000  0.53071428  0.54259369  1
  C  C105  1  0.50000000  0.53092546  0.91528170  1
  C  C106  1  0.50000000  0.53116901  0.66716871  1
  C  C107  1  0.50000000  0.53123932  0.79122205  1
  C  C108  1  0.50000000  0.59229418  0.58420609  1
  C  C109  1  0.50000000  0.59195924  0.95753105  1
  C  C110  1  0.50000000  0.59288080  0.70856402  1
  C  C111  1  0.50000000  0.59284041  0.83292250  1
  C  C112  1  0.50000000  0.62306999  0.60448573  1
  C  C113  1  0.50000000  0.62233762  0.97772785  1
  C  C114  1  0.50000000  0.62359613  0.72916844  1
  C  C115  1  0.50000000  0.62339398  0.85376011  1
  C  C116  1  0.50000000  0.56116873  0.52258715  1
  C  C117  1  0.50000000  0.56177316  0.89482287  1
  C  C118  1  0.50000000  0.56190067  0.64645091  1
  C  C119  1  0.50000000  0.56211126  0.77062344  1
  C  C120  1  0.50000000  0.59190304  0.54224958  1
  C  C121  1  0.50000000  0.59237903  0.91558588  1
  C  C122  1  0.50000000  0.59278201  0.66691739  1
  C  C123  1  0.50000000  0.59290111  0.79127949  1
  C  C124  1  0.50000000  0.65371833  0.58334877  1
  C  C125  1  0.50000000  0.65314525  0.95835036  1
  C  C126  1  0.50000000  0.65446233  0.70824709  1
  C  C127  1  0.50000000  0.65443637  0.83326869  1
  C  C128  1  0.50000000  0.68484267  0.60328005  1
  C  C129  1  0.50000000  0.68360737  0.97921478  1
  C  C130  1  0.50000000  0.68518927  0.72885860  1
  C  C131  1  0.50000000  0.68507982  0.85426251  1
  C  C132  1  0.50000000  0.62228697  0.52206761  1
  C  C133  1  0.50000000  0.62317954  0.89534732  1
  C  C134  1  0.50000000  0.62331284  0.64608047  1
  C  C135  1  0.50000000  0.62361398  0.77069095  1
  C  C136  1  0.50000000  0.65306811  0.54150814  1
  C  C137  1  0.50000000  0.65383540  0.91649758  1
  C  C138  1  0.50000000  0.65435364  0.66657444  1
  C  C139  1  0.50000000  0.65450528  0.79159187  1
  C  C140  1  0.50000000  0.71432290  0.58116920  1
  C  C141  1  0.50000000  0.71367310  0.95950575  1
  C  C142  1  0.50000000  0.71495940  0.70714418  1
  C  C143  1  0.50000000  0.71491631  0.83277892  1
  C  C144  1  0.50000000  0.68356488  0.52074393  1
  C  C145  1  0.50000000  0.68498198  0.89659690  1
  C  C146  1  0.50000000  0.68497408  0.64558464  1
  C  C147  1  0.50000000  0.68521947  0.77094225  1
  C  C148  1  0.50000000  0.71361659  0.54048159  1
  C  C149  1  0.50000000  0.71443005  0.91880928  1
  C  C150  1  0.50000000  0.71483878  0.66701904  1
  C  C151  1  0.50000000  0.71500387  0.79265030  1
  H  H152  1  0.50000000  0.26128819  0.09724057  1
  H  H153  1  0.50000000  0.26162606  0.59787762  1
  H  H154  1  0.50000000  0.26103277  0.47224708  1
  H  H155  1  0.50000000  0.26117999  0.97157835  1
  H  H156  1  0.50000000  0.26152098  0.22226582  1
  H  H157  1  0.50000000  0.26204993  0.72260369  1
  H  H158  1  0.50000000  0.26145952  0.34715180  1
  H  H159  1  0.50000000  0.26197663  0.84720280  1
  H  H160  1  0.50000000  0.26101584  0.02722915  1
  H  H161  1  0.50000000  0.26129389  0.52815921  1
  H  H162  1  0.50000000  0.26136423  0.40267477  1
  H  H163  1  0.50000000  0.26161809  0.90176637  1
  H  H164  1  0.50000000  0.26142323  0.15248746  1
  H  H165  1  0.50000000  0.26198207  0.65278148  1
  H  H166  1  0.50000000  0.26157053  0.27749373  1
  H  H167  1  0.50000000  0.26204299  0.77728352  1
  H  H168  1  0.50000000  0.73854526  0.59560239  1
  H  H169  1  0.50000000  0.73712707  0.97575527  1
  H  H170  1  0.50000000  0.73895899  0.72204233  1
  H  H171  1  0.50000000  0.73885127  0.84784580  1
  H  H172  1  0.50000000  0.73709588  0.52431203  1
  H  H173  1  0.50000000  0.73872006  0.90454305  1
  H  H174  1  0.50000000  0.73873949  0.65187352  1
  H  H175  1  0.50000000  0.73905556  0.77786528  1
  H  H176  1  0.50000000  0.40003575  0.08953482  1
  H  H177  1  0.50000000  0.39914881  0.46470356  1
  H  H178  1  0.50000000  0.40035462  0.21493102  1
  H  H179  1  0.50000000  0.40030962  0.34050451  1
  H  H180  1  0.50000000  0.43996160  0.00842671  1
  H  H181  1  0.50000000  0.39910298  0.03497425  1
  H  H182  1  0.50000000  0.40010563  0.41027657  1
  H  H183  1  0.50000000  0.40023981  0.15922020  1
  H  H184  1  0.50000000  0.40044948  0.28462619  1
  H  H185  1  0.50000000  0.49990539  0.00863978  1
  H  H186  1  0.50000000  0.43988804  0.49127317  1
  H  H187  1  0.50000000  0.56107637  0.00893398  1
  H  H188  1  0.50000000  0.49984681  0.49104184  1
  H  H189  1  0.50000000  0.62196574  0.00952154  1
  H  H190  1  0.50000000  0.56105159  0.49077405  1
  H  H191  1  0.50000000  0.68291806  0.01101227  1
  H  H192  1  0.50000000  0.62188974  0.49027130  1
  H  H193  1  0.50000000  0.68288770  0.48896437  1
