# generated using pymatgen
data_H21C76
_symmetry_space_group_name_H-M   'P 1'
_cell_length_a   20.00000000
_cell_length_b   40.19450000
_cell_length_c   34.80555615
_cell_angle_alpha   90.00000000
_cell_angle_beta   90.00000000
_cell_angle_gamma   90.00000000
_symmetry_Int_Tables_number   1
_chemical_formula_structural   H21C76
_chemical_formula_sum   'H42 C152'
_cell_volume   27979.83853483
_cell_formula_units_Z   2
loop_
 _symmetry_equiv_pos_site_id
 _symmetry_equiv_pos_as_xyz
  1  'x, y, z'
loop_
 _atom_site_type_symbol
 _atom_site_label
 _atom_site_symmetry_multiplicity
 _atom_site_fract_x
 _atom_site_fract_y
 _atom_site_fract_z
 _atom_site_occupancy
  C  C0  1  0.50000000  0.28296703  0.58498999  1
  C  C1  1  0.50000000  0.28303804  0.95508856  1
  C  C2  1  0.50000000  0.28373666  0.70850848  1
  C  C3  1  0.50000000  0.28351640  0.83092891  1
  C  C4  1  0.50000000  0.31272837  0.60627302  1
  C  C5  1  0.50000000  0.31299181  0.97482329  1
  C  C6  1  0.50000000  0.31381653  0.72923472  1
  C  C7  1  0.50000000  0.31328384  0.85209594  1
  C  C8  1  0.50000000  0.28310557  0.54473909  1
  C  C9  1  0.50000000  0.28293959  0.91485198  1
  C  C10  1  0.50000000  0.28353460  0.66897006  1
  C  C11  1  0.50000000  0.28371555  0.79141056  1
  C  C12  1  0.50000000  0.34370680  0.58644420  1
  C  C13  1  0.50000000  0.34337191  0.95417524  1
  C  C14  1  0.50000000  0.34448668  0.70880687  1
  C  C15  1  0.50000000  0.34429989  0.83223933  1
  C  C16  1  0.50000000  0.37506197  0.60578055  1
  C  C17  1  0.50000000  0.37380754  0.97389584  1
  C  C18  1  0.50000000  0.37535236  0.72939511  1
  C  C19  1  0.50000000  0.37519477  0.85293671  1
  C  C20  1  0.50000000  0.31309787  0.52509626  1
  C  C21  1  0.50000000  0.31269778  0.89359022  1
  C  C22  1  0.50000000  0.31330272  0.64779061  1
  C  C23  1  0.50000000  0.31379677  0.77066615  1
  C  C24  1  0.50000000  0.34345995  0.54573193  1
  C  C25  1  0.50000000  0.34363379  0.91345615  1
  C  C26  1  0.50000000  0.34431748  0.66766010  1
  C  C27  1  0.50000000  0.34446858  0.79110324  1
  C  C28  1  0.50000000  0.41436365  0.08687734  1
  C  C29  1  0.50000000  0.40563981  0.58462315  1
  C  C30  1  0.50000000  0.41122161  0.45210714  1
  C  C31  1  0.50000000  0.40522890  0.95717669  1
  C  C32  1  0.50000000  0.41855067  0.20868763  1
  C  C33  1  0.50000000  0.40590650  0.70873197  1
  C  C34  1  0.50000000  0.41748916  0.33038995  1
  C  C35  1  0.50000000  0.40582277  0.83260050  1
  C  C36  1  0.50000000  0.44543380  0.10585488  1
  C  C37  1  0.50000000  0.43644411  0.60520094  1
  C  C38  1  0.50000000  0.43860280  0.47846169  1
  C  C39  1  0.50000000  0.43659699  0.97943714  1
  C  C40  1  0.50000000  0.44916508  0.22917851  1
  C  C41  1  0.50000000  0.43657222  0.72933677  1
  C  C42  1  0.50000000  0.44713397  0.35273178  1
  C  C43  1  0.50000000  0.43647891  0.85341349  1
  C  C44  1  0.50000000  0.37390249  0.52602015  1
  C  C45  1  0.50000000  0.37504032  0.89417110  1
  C  C46  1  0.50000000  0.37523149  0.64699180  1
  C  C47  1  0.50000000  0.37535078  0.77054607  1
  C  C48  1  0.50000000  0.41126677  0.04778680  1
  C  C49  1  0.50000000  0.40528060  0.54281968  1
  C  C50  1  0.50000000  0.41433811  0.41300961  1
  C  C51  1  0.50000000  0.40564549  0.91537556  1
  C  C52  1  0.50000000  0.41754808  0.16946350  1
  C  C53  1  0.50000000  0.40584381  0.66734705  1
  C  C54  1  0.50000000  0.41855406  0.29114153  1
  C  C55  1  0.50000000  0.40590236  0.79122203  1
  C  C56  1  0.50000000  0.47422904  0.08244681  1
  C  C57  1  0.50000000  0.46697303  0.58427759  1
  C  C58  1  0.50000000  0.47064150  0.45957021  1
  C  C59  1  0.50000000  0.46682295  0.95752100  1
  C  C60  1  0.50000000  0.47954694  0.20809152  1
  C  C61  1  0.50000000  0.46721194  0.70861192  1
  C  C62  1  0.50000000  0.47850234  0.33369876  1
  C  C63  1  0.50000000  0.46715186  0.83270919  1
  C  C64  1  0.50000000  0.50533163  0.10238709  1
  C  C65  1  0.50000000  0.49775614  0.60519701  1
  C  C66  1  0.50000000  0.49907141  0.48272176  1
  C  C67  1  0.50000000  0.49821378  0.97729077  1
  C  C68  1  0.50000000  0.50948513  0.23010926  1
  C  C69  1  0.50000000  0.49783588  0.72931213  1
  C  C70  1  0.50000000  0.50726100  0.35780170  1
  C  C71  1  0.50000000  0.49781827  0.85335942  1
  C  C72  1  0.50000000  0.43865552  0.02148895  1
  C  C73  1  0.50000000  0.43660903  0.52053459  1
  C  C74  1  0.50000000  0.44540607  0.39406912  1
  C  C75  1  0.50000000  0.43642552  0.89477075  1
  C  C76  1  0.50000000  0.44719928  0.14717416  1
  C  C77  1  0.50000000  0.43651126  0.64655434  1
  C  C78  1  0.50000000  0.44917689  0.27069287  1
  C  C79  1  0.50000000  0.43656847  0.77061849  1
  C  C80  1  0.50000000  0.47069007  0.04037646  1
  C  C81  1  0.50000000  0.46684184  0.54242420  1
  C  C82  1  0.50000000  0.47419648  0.41749264  1
  C  C83  1  0.50000000  0.46696594  0.91567044  1
  C  C84  1  0.50000000  0.47855442  0.16623837  1
  C  C85  1  0.50000000  0.46717628  0.66726102  1
  C  C86  1  0.50000000  0.47953313  0.29183432  1
  C  C87  1  0.50000000  0.46719820  0.79135988  1
  C  C88  1  0.50000000  0.52885126  0.58527339  1
  C  C89  1  0.50000000  0.52955687  0.95594204  1
  C  C90  1  0.50000000  0.52852210  0.70870532  1
  C  C91  1  0.50000000  0.52854294  0.83251251  1
  C  C92  1  0.50000000  0.55948914  0.60613232  1
  C  C93  1  0.50000000  0.56002732  0.97473738  1
  C  C94  1  0.50000000  0.55926885  0.72938830  1
  C  C95  1  0.50000000  0.55939239  0.85272247  1
  C  C96  1  0.50000000  0.49908672  0.01718775  1
  C  C97  1  0.50000000  0.49823565  0.52263431  1
  C  C98  1  0.50000000  0.50528971  0.39754844  1
  C  C99  1  0.50000000  0.49775652  0.89475940  1
  C  C100  1  0.50000000  0.50732316  0.14213180  1
  C  C101  1  0.50000000  0.49783540  0.64660090  1
  C  C102  1  0.50000000  0.50950107  0.26984112  1
  C  C103  1  0.50000000  0.49783484  0.77067918  1
  C  C104  1  0.50000000  0.52956369  0.54401935  1
  C  C105  1  0.50000000  0.52885505  0.91469065  1
  C  C106  1  0.50000000  0.52854937  0.66746539  1
  C  C107  1  0.50000000  0.52852475  0.79127773  1
  C  C108  1  0.50000000  0.59045587  0.58620174  1
  C  C109  1  0.50000000  0.59073581  0.95504629  1
  C  C110  1  0.50000000  0.59007966  0.70899916  1
  C  C111  1  0.50000000  0.59017624  0.83220593  1
  C  C112  1  0.50000000  0.62112244  0.60639905  1
  C  C113  1  0.50000000  0.62099888  0.97508370  1
  C  C114  1  0.50000000  0.62074703  0.72944674  1
  C  C115  1  0.50000000  0.62090732  0.85250852  1
  C  C116  1  0.50000000  0.56005223  0.52527676  1
  C  C117  1  0.50000000  0.55949711  0.89385192  1
  C  C118  1  0.50000000  0.55939785  0.64726067  1
  C  C119  1  0.50000000  0.55926575  0.77057531  1
  C  C120  1  0.50000000  0.59073913  0.54498502  1
  C  C121  1  0.50000000  0.59046160  0.91380237  1
  C  C122  1  0.50000000  0.59018540  0.66776432  1
  C  C123  1  0.50000000  0.59007821  0.79096444  1
  C  C124  1  0.50000000  0.65186113  0.58569139  1
  C  C125  1  0.50000000  0.65173430  0.95568707  1
  C  C126  1  0.50000000  0.65164115  0.70887145  1
  C  C127  1  0.50000000  0.65178337  0.83214996  1
  C  C128  1  0.50000000  0.68285059  0.60563424  1
  C  C129  1  0.50000000  0.68247055  0.97586253  1
  C  C130  1  0.50000000  0.68231220  0.72921018  1
  C  C131  1  0.50000000  0.68254760  0.85257485  1
  C  C132  1  0.50000000  0.62098500  0.52496499  1
  C  C133  1  0.50000000  0.62112849  0.89359315  1
  C  C134  1  0.50000000  0.62091300  0.64746191  1
  C  C135  1  0.50000000  0.62074216  0.77049579  1
  C  C136  1  0.50000000  0.65171351  0.54432057  1
  C  C137  1  0.50000000  0.65187281  0.91429026  1
  C  C138  1  0.50000000  0.65180335  0.66777497  1
  C  C139  1  0.50000000  0.65163798  0.79104703  1
  C  C140  1  0.50000000  0.71255524  0.58429634  1
  C  C141  1  0.50000000  0.71232502  0.95590432  1
  C  C142  1  0.50000000  0.71225397  0.70814801  1
  C  C143  1  0.50000000  0.71231955  0.83136156  1
  C  C144  1  0.50000000  0.68241416  0.52410967  1
  C  C145  1  0.50000000  0.68285363  0.89428984  1
  C  C146  1  0.50000000  0.68256194  0.64734601  1
  C  C147  1  0.50000000  0.68231066  0.77068515  1
  C  C148  1  0.50000000  0.71229280  0.54401080  1
  C  C149  1  0.50000000  0.71256480  0.91562240  1
  C  C150  1  0.50000000  0.71235135  0.66852051  1
  C  C151  1  0.50000000  0.71222129  0.79175810  1
  H  H152  1  0.50000000  0.25890015  0.59967001  1
  H  H153  1  0.50000000  0.25931821  0.97059304  1
  H  H154  1  0.50000000  0.25992031  0.72358858  1
  H  H155  1  0.50000000  0.25954670  0.84570272  1
  H  H156  1  0.50000000  0.25951066  0.52896783  1
  H  H157  1  0.50000000  0.25887416  0.90018283  1
  H  H158  1  0.50000000  0.25961658  0.65407896  1
  H  H159  1  0.50000000  0.25982999  0.77649892  1
  H  H160  1  0.50000000  0.73652188  0.59914056  1
  H  H161  1  0.50000000  0.73601000  0.97150973  1
  H  H162  1  0.50000000  0.73609723  0.72316780  1
  H  H163  1  0.50000000  0.73630886  0.84606790  1
  H  H164  1  0.50000000  0.73592912  0.52831259  1
  H  H165  1  0.50000000  0.73658655  0.90091249  1
  H  H166  1  0.50000000  0.73623083  0.65354543  1
  H  H167  1  0.50000000  0.73610777  0.77685969  1
  H  H168  1  0.50000000  0.31356070  0.00634720  1
  H  H169  1  0.50000000  0.37028889  0.00436515  1
  H  H170  1  0.50000000  0.31372627  0.49360845  1
  H  H171  1  0.50000000  0.39132560  0.10342644  1
  H  H172  1  0.50000000  0.38554669  0.46068441  1
  H  H173  1  0.50000000  0.39492864  0.22409230  1
  H  H174  1  0.50000000  0.39305555  0.34411338  1
  H  H175  1  0.50000000  0.37047899  0.49552146  1
  H  H176  1  0.50000000  0.38562893  0.03904729  1
  H  H177  1  0.50000000  0.39133447  0.39637155  1
  H  H178  1  0.50000000  0.39319374  0.15554368  1
  H  H179  1  0.50000000  0.39497831  0.27565914  1
  H  H180  1  0.50000000  0.52881700  0.08644610  1
  H  H181  1  0.50000000  0.52310555  0.46836182  1
  H  H182  1  0.50000000  0.53345899  0.21524922  1
  H  H183  1  0.50000000  0.53208456  0.34478182  1
  H  H184  1  0.50000000  0.56159916  0.00608524  1
  H  H185  1  0.50000000  0.52317289  0.03139372  1
  H  H186  1  0.50000000  0.52872913  0.41358820  1
  H  H187  1  0.50000000  0.53216962  0.15506246  1
  H  H188  1  0.50000000  0.53350579  0.28464297  1
  H  H189  1  0.50000000  0.62075281  0.00661938  1
  H  H190  1  0.50000000  0.56162310  0.49394907  1
  H  H191  1  0.50000000  0.68231504  0.00736951  1
  H  H192  1  0.50000000  0.62071790  0.49347292  1
  H  H193  1  0.50000000  0.68221632  0.49261874  1
