# generated using pymatgen
data_H21C76
_symmetry_space_group_name_H-M   'P 1'
_cell_length_a   20.00000000
_cell_length_b   40.19450000
_cell_length_c   34.75869734
_cell_angle_alpha   90.00000000
_cell_angle_beta   90.00000000
_cell_angle_gamma   90.00000000
_symmetry_Int_Tables_number   1
_chemical_formula_structural   H21C76
_chemical_formula_sum   'H42 C152'
_cell_volume   27942.16920487
_cell_formula_units_Z   2
loop_
 _symmetry_equiv_pos_site_id
 _symmetry_equiv_pos_as_xyz
  1  'x, y, z'
loop_
 _atom_site_type_symbol
 _atom_site_label
 _atom_site_symmetry_multiplicity
 _atom_site_fract_x
 _atom_site_fract_y
 _atom_site_fract_z
 _atom_site_occupancy
  C  C0  1  0.50000000  0.28777533  0.58433194  1
  C  C1  1  0.50000000  0.28708203  0.95481481  1
  C  C2  1  0.50000000  0.28857961  0.70764043  1
  C  C3  1  0.50000000  0.28854277  0.83181380  1
  C  C4  1  0.50000000  0.30862020  0.10223708  1
  C  C5  1  0.50000000  0.31855779  0.60491303  1
  C  C6  1  0.50000000  0.31500926  0.48305622  1
  C  C7  1  0.50000000  0.31707537  0.97675585  1
  C  C8  1  0.50000000  0.30421545  0.23001349  1
  C  C9  1  0.50000000  0.31850015  0.72911544  1
  C  C10  1  0.50000000  0.30648207  0.35781283  1
  C  C11  1  0.50000000  0.31847627  0.85339174  1
  C  C12  1  0.50000000  0.28708926  0.54509040  1
  C  C13  1  0.50000000  0.28774224  0.91557430  1
  C  C14  1  0.50000000  0.28856570  0.66799315  1
  C  C15  1  0.50000000  0.28857966  0.79217380  1
  C  C16  1  0.50000000  0.33975439  0.08239852  1
  C  C17  1  0.50000000  0.34899803  0.58416002  1
  C  C18  1  0.50000000  0.34319520  0.45960858  1
  C  C19  1  0.50000000  0.34883818  0.95742039  1
  C  C20  1  0.50000000  0.33419128  0.20803568  1
  C  C21  1  0.50000000  0.34912187  0.70851944  1
  C  C22  1  0.50000000  0.33521046  0.33369221  1
  C  C23  1  0.50000000  0.34913954  0.83274265  1
  C  C24  1  0.50000000  0.36854610  0.10583290  1
  C  C25  1  0.50000000  0.37990387  0.60507312  1
  C  C26  1  0.50000000  0.37563098  0.47827384  1
  C  C27  1  0.50000000  0.37878451  0.97969080  1
  C  C28  1  0.50000000  0.36456647  0.22916842  1
  C  C29  1  0.50000000  0.37985901  0.72933246  1
  C  C30  1  0.50000000  0.36660419  0.35269780  1
  C  C31  1  0.50000000  0.37986138  0.85348334  1
  C  C32  1  0.50000000  0.31500721  0.01687097  1
  C  C33  1  0.50000000  0.31710228  0.52317548  1
  C  C34  1  0.50000000  0.30850108  0.39762464  1
  C  C35  1  0.50000000  0.31849693  0.89493565  1
  C  C36  1  0.50000000  0.30652243  0.14202718  1
  C  C37  1  0.50000000  0.31852398  0.64646776  1
  C  C38  1  0.50000000  0.30418542  0.26978751  1
  C  C39  1  0.50000000  0.31850263  0.77072446  1
  C  C40  1  0.50000000  0.34323776  0.04025262  1
  C  C41  1  0.50000000  0.34886826  0.54246208  1
  C  C42  1  0.50000000  0.33964394  0.41745667  1
  C  C43  1  0.50000000  0.34894698  0.91570807  1
  C  C44  1  0.50000000  0.33524112  0.16614152  1
  C  C45  1  0.50000000  0.34916723  0.66713683  1
  C  C46  1  0.50000000  0.33414908  0.29179430  1
  C  C47  1  0.50000000  0.34911605  0.79135405  1
  C  C48  1  0.50000000  0.39976946  0.08703347  1
  C  C49  1  0.50000000  0.41031279  0.58426395  1
  C  C50  1  0.50000000  0.40286725  0.45183456  1
  C  C51  1  0.50000000  0.41057053  0.95766402  1
  C  C52  1  0.50000000  0.39519916  0.20869718  1
  C  C53  1  0.50000000  0.41047181  0.70866139  1
  C  C54  1  0.50000000  0.39622405  0.33033945  1
  C  C55  1  0.50000000  0.41046385  0.83256137  1
  C  C56  1  0.50000000  0.44102868  0.60565468  1
  C  C57  1  0.50000000  0.44200288  0.97429204  1
  C  C58  1  0.50000000  0.44113603  0.72934195  1
  C  C59  1  0.50000000  0.44105721  0.85294140  1
  C  C60  1  0.50000000  0.37562885  0.02154369  1
  C  C61  1  0.50000000  0.37880315  0.52013551  1
  C  C62  1  0.50000000  0.36843057  0.39400404  1
  C  C63  1  0.50000000  0.37986372  0.89480249  1
  C  C64  1  0.50000000  0.36663411  0.14712859  1
  C  C65  1  0.50000000  0.37987784  0.64638653  1
  C  C66  1  0.50000000  0.36452103  0.27065567  1
  C  C67  1  0.50000000  0.37985597  0.77054188  1
  C  C68  1  0.50000000  0.40289317  0.04793600  1
  C  C69  1  0.50000000  0.41059053  0.54217682  1
  C  C70  1  0.50000000  0.39964201  0.41276115  1
  C  C71  1  0.50000000  0.41029335  0.91559598  1
  C  C72  1  0.50000000  0.39624453  0.16944142  1
  C  C73  1  0.50000000  0.41046361  0.66733100  1
  C  C74  1  0.50000000  0.39514485  0.29108608  1
  C  C75  1  0.50000000  0.41047182  0.79122610  1
  C  C76  1  0.50000000  0.47217984  0.58652088  1
  C  C77  1  0.50000000  0.47250383  0.95429297  1
  C  C78  1  0.50000000  0.47190172  0.70883903  1
  C  C79  1  0.50000000  0.47188316  0.83216910  1
  C  C80  1  0.50000000  0.50293383  0.60674096  1
  C  C81  1  0.50000000  0.50266664  0.97455892  1
  C  C82  1  0.50000000  0.50270779  0.72937383  1
  C  C83  1  0.50000000  0.50284736  0.85213795  1
  C  C84  1  0.50000000  0.44201160  0.52553355  1
  C  C85  1  0.50000000  0.44102432  0.89422700  1
  C  C86  1  0.50000000  0.44104614  0.64694347  1
  C  C87  1  0.50000000  0.44114014  0.77054390  1
  C  C88  1  0.50000000  0.47250239  0.54558171  1
  C  C89  1  0.50000000  0.47217824  0.91336048  1
  C  C90  1  0.50000000  0.47186860  0.66772113  1
  C  C91  1  0.50000000  0.47190782  0.79105490  1
  C  C92  1  0.50000000  0.53347220  0.58621845  1
  C  C93  1  0.50000000  0.53348101  0.95527102  1
  C  C94  1  0.50000000  0.53352422  0.70910829  1
  C  C95  1  0.50000000  0.53359326  0.83182785  1
  C  C96  1  0.50000000  0.56426967  0.60645771  1
  C  C97  1  0.50000000  0.56395661  0.97516306  1
  C  C98  1  0.50000000  0.56440632  0.72945697  1
  C  C99  1  0.50000000  0.56434303  0.85237236  1
  C  C100  1  0.50000000  0.50269326  0.52537562  1
  C  C101  1  0.50000000  0.50294682  0.89315945  1
  C  C102  1  0.50000000  0.50283079  0.64775845  1
  C  C103  1  0.50000000  0.50271719  0.77053190  1
  C  C104  1  0.50000000  0.53349687  0.54467526  1
  C  C105  1  0.50000000  0.53348209  0.91370943  1
  C  C106  1  0.50000000  0.53356457  0.66808170  1
  C  C107  1  0.50000000  0.53353980  0.79079795  1
  C  C108  1  0.50000000  0.59491555  0.58588999  1
  C  C109  1  0.50000000  0.59469361  0.95567710  1
  C  C110  1  0.50000000  0.59518771  0.70902609  1
  C  C111  1  0.50000000  0.59519343  0.83210961  1
  C  C112  1  0.50000000  0.62563485  0.60599921  1
  C  C113  1  0.50000000  0.62516031  0.97559480  1
  C  C114  1  0.50000000  0.62589525  0.72939281  1
  C  C115  1  0.50000000  0.62575795  0.85271116  1
  C  C116  1  0.50000000  0.56398787  0.52482851  1
  C  C117  1  0.50000000  0.56429065  0.89347513  1
  C  C118  1  0.50000000  0.56431266  0.64754660  1
  C  C119  1  0.50000000  0.56441733  0.77043903  1
  C  C120  1  0.50000000  0.59472159  0.54429334  1
  C  C121  1  0.50000000  0.59492538  0.91405698  1
  C  C122  1  0.50000000  0.59516389  0.66779251  1
  C  C123  1  0.50000000  0.59520425  0.79086977  1
  C  C124  1  0.50000000  0.65636003  0.58515969  1
  C  C125  1  0.50000000  0.65588896  0.95617493  1
  C  C126  1  0.50000000  0.65676842  0.70867856  1
  C  C127  1  0.50000000  0.65677824  0.83241247  1
  C  C128  1  0.50000000  0.68738987  0.60500140  1
  C  C129  1  0.50000000  0.68648276  0.97655738  1
  C  C130  1  0.50000000  0.68748723  0.72908707  1
  C  C131  1  0.50000000  0.68747723  0.85301520  1
  C  C132  1  0.50000000  0.62517890  0.52436189  1
  C  C133  1  0.50000000  0.62564682  0.89390859  1
  C  C134  1  0.50000000  0.62572547  0.64718752  1
  C  C135  1  0.50000000  0.62590531  0.77049005  1
  C  C136  1  0.50000000  0.65592691  0.54371282  1
  C  C137  1  0.50000000  0.65637705  0.91472142  1
  C  C138  1  0.50000000  0.65674165  0.66746238  1
  C  C139  1  0.50000000  0.65678879  0.79118143  1
  C  C140  1  0.50000000  0.71701609  0.58341783  1
  C  C141  1  0.50000000  0.71646454  0.95685147  1
  C  C142  1  0.50000000  0.71735537  0.70778608  1
  C  C143  1  0.50000000  0.71732302  0.83174672  1
  C  C144  1  0.50000000  0.68654242  0.52333783  1
  C  C145  1  0.50000000  0.68743650  0.89487893  1
  C  C146  1  0.50000000  0.68741955  0.64684116  1
  C  C147  1  0.50000000  0.68749289  0.77073524  1
  C  C148  1  0.50000000  0.71650260  0.54311511  1
  C  C149  1  0.50000000  0.71704103  0.91653741  1
  C  C150  1  0.50000000  0.71729268  0.66804825  1
  C  C151  1  0.50000000  0.71736097  0.79201560  1
  H  H152  1  0.50000000  0.26423058  0.59999846  1
  H  H153  1  0.50000000  0.26332210  0.97029074  1
  H  H154  1  0.50000000  0.26459974  0.72244564  1
  H  H155  1  0.50000000  0.26444980  0.84634961  1
  H  H156  1  0.50000000  0.26338808  0.52946125  1
  H  H157  1  0.50000000  0.26416182  0.89999354  1
  H  H158  1  0.50000000  0.26451856  0.65334962  1
  H  H159  1  0.50000000  0.26464597  0.77725180  1
  H  H160  1  0.50000000  0.74111900  0.59798921  1
  H  H161  1  0.50000000  0.73997094  0.97279187  1
  H  H162  1  0.50000000  0.74135780  0.72256883  1
  H  H163  1  0.50000000  0.74133595  0.84649164  1
  H  H164  1  0.50000000  0.74008972  0.52735613  1
  H  H165  1  0.50000000  0.74119954  0.90208302  1
  H  H166  1  0.50000000  0.74123487  0.65312746  1
  H  H167  1  0.50000000  0.74138616  0.77728833  1
  H  H168  1  0.50000000  0.28522282  0.08612793  1
  H  H169  1  0.50000000  0.29011698  0.47033486  1
  H  H170  1  0.50000000  0.28018566  0.21524118  1
  H  H171  1  0.50000000  0.28171321  0.34465421  1
  H  H172  1  0.50000000  0.29018787  0.02979350  1
  H  H173  1  0.50000000  0.28513809  0.41384733  1
  H  H174  1  0.50000000  0.28168558  0.15501713  1
  H  H175  1  0.50000000  0.28013262  0.28450589  1
  H  H176  1  0.50000000  0.42279340  0.10365219  1
  H  H177  1  0.50000000  0.42843671  0.46081792  1
  H  H178  1  0.50000000  0.41884410  0.22403514  1
  H  H179  1  0.50000000  0.42065493  0.34405846  1
  H  H180  1  0.50000000  0.44580756  0.00483988  1
  H  H181  1  0.50000000  0.42839280  0.03871843  1
  H  H182  1  0.50000000  0.42259373  0.39604362  1
  H  H183  1  0.50000000  0.42060157  0.15553422  1
  H  H184  1  0.50000000  0.41872385  0.27560522  1
  H  H185  1  0.50000000  0.50236640  0.00613528  1
  H  H186  1  0.50000000  0.44577471  0.49494233  1
  H  H187  1  0.50000000  0.56387439  0.00672450  1
  H  H188  1  0.50000000  0.50238917  0.49382147  1
  H  H189  1  0.50000000  0.62492358  0.00715406  1
  H  H190  1  0.50000000  0.56392039  0.49329906  1
  H  H191  1  0.50000000  0.68596778  0.00806080  1
  H  H192  1  0.50000000  0.62492312  0.49283251  1
  H  H193  1  0.50000000  0.68604123  0.49181050  1
