# generated using pymatgen
data_H21C76
_symmetry_space_group_name_H-M   'P 1'
_cell_length_a   20.00000000
_cell_length_b   40.19450000
_cell_length_c   34.78956203
_cell_angle_alpha   90.00000000
_cell_angle_beta   90.00000000
_cell_angle_gamma   90.00000000
_symmetry_Int_Tables_number   1
_chemical_formula_structural   H21C76
_chemical_formula_sum   'H42 C152'
_cell_volume   27966.98102176
_cell_formula_units_Z   2
loop_
 _symmetry_equiv_pos_site_id
 _symmetry_equiv_pos_as_xyz
  1  'x, y, z'
loop_
 _atom_site_type_symbol
 _atom_site_label
 _atom_site_symmetry_multiplicity
 _atom_site_fract_x
 _atom_site_fract_y
 _atom_site_fract_z
 _atom_site_occupancy
  C  C0  1  0.50000000  0.28320669  0.58416646  1
  C  C1  1  0.50000000  0.28361411  0.95622929  1
  C  C2  1  0.50000000  0.28326177  0.70813852  1
  C  C3  1  0.50000000  0.28320382  0.83146662  1
  C  C4  1  0.50000000  0.31286212  0.60565358  1
  C  C5  1  0.50000000  0.31354814  0.97600497  1
  C  C6  1  0.50000000  0.31319537  0.72924573  1
  C  C7  1  0.50000000  0.31303998  0.85261982  1
  C  C8  1  0.50000000  0.28361667  0.54386731  1
  C  C9  1  0.50000000  0.28318903  0.91592948  1
  C  C10  1  0.50000000  0.28322223  0.66848674  1
  C  C11  1  0.50000000  0.28326677  0.79182162  1
  C  C12  1  0.50000000  0.34391772  0.58583398  1
  C  C13  1  0.50000000  0.34413982  0.95557234  1
  C  C14  1  0.50000000  0.34394747  0.70898219  1
  C  C15  1  0.50000000  0.34380733  0.83208280  1
  C  C16  1  0.50000000  0.37460502  0.60671466  1
  C  C17  1  0.50000000  0.37497301  0.97460061  1
  C  C18  1  0.50000000  0.37495122  0.72946044  1
  C  C19  1  0.50000000  0.37477788  0.85229804  1
  C  C20  1  0.50000000  0.31355187  0.52409140  1
  C  C21  1  0.50000000  0.31281109  0.89435970  1
  C  C22  1  0.50000000  0.31309022  0.64738458  1
  C  C23  1  0.50000000  0.31319307  0.77070961  1
  C  C24  1  0.50000000  0.34415823  0.54446276  1
  C  C25  1  0.50000000  0.34388256  0.91417793  1
  C  C26  1  0.50000000  0.34385169  0.66790428  1
  C  C27  1  0.50000000  0.34393728  0.79099482  1
  C  C28  1  0.50000000  0.40532401  0.58675231  1
  C  C29  1  0.50000000  0.40498620  0.95408318  1
  C  C30  1  0.50000000  0.40570928  0.70902510  1
  C  C31  1  0.50000000  0.40566476  0.83222609  1
  C  C32  1  0.50000000  0.43656425  0.60593912  1
  C  C33  1  0.50000000  0.43541534  0.97385042  1
  C  C34  1  0.50000000  0.43652484  0.72941702  1
  C  C35  1  0.50000000  0.43654962  0.85283352  1
  C  C36  1  0.50000000  0.37497312  0.52541898  1
  C  C37  1  0.50000000  0.37456634  0.89327494  1
  C  C38  1  0.50000000  0.37482181  0.64768465  1
  C  C39  1  0.50000000  0.37494790  0.77051036  1
  C  C40  1  0.50000000  0.40500442  0.54586997  1
  C  C41  1  0.50000000  0.40529597  0.91321181  1
  C  C42  1  0.50000000  0.40569572  0.66776258  1
  C  C43  1  0.50000000  0.40569991  0.79095859  1
  C  C44  1  0.50000000  0.47576761  0.08690620  1
  C  C45  1  0.50000000  0.46724315  0.58460421  1
  C  C46  1  0.50000000  0.47279994  0.45198190  1
  C  C47  1  0.50000000  0.46682293  0.95716982  1
  C  C48  1  0.50000000  0.47997411  0.20865642  1
  C  C49  1  0.50000000  0.46728374  0.70873486  1
  C  C50  1  0.50000000  0.47901065  0.33030372  1
  C  C51  1  0.50000000  0.46731152  0.83250176  1
  C  C52  1  0.50000000  0.50684623  0.10585872  1
  C  C53  1  0.50000000  0.49796382  0.60510860  1
  C  C54  1  0.50000000  0.50017927  0.47831081  1
  C  C55  1  0.50000000  0.49812689  0.97949517  1
  C  C56  1  0.50000000  0.51060060  0.22912826  1
  C  C57  1  0.50000000  0.49795819  0.72932437  1
  C  C58  1  0.50000000  0.50865731  0.35261432  1
  C  C59  1  0.50000000  0.49795386  0.85338818  1
  C  C60  1  0.50000000  0.43542751  0.52605204  1
  C  C61  1  0.50000000  0.43654573  0.89404341  1
  C  C62  1  0.50000000  0.43656810  0.64715190  1
  C  C63  1  0.50000000  0.43652089  0.77058278  1
  C  C64  1  0.50000000  0.47277487  0.04778406  1
  C  C65  1  0.50000000  0.46682367  0.54276868  1
  C  C66  1  0.50000000  0.47589628  0.41287385  1
  C  C67  1  0.50000000  0.46723225  0.91535716  1
  C  C68  1  0.50000000  0.47900248  0.16941336  1
  C  C69  1  0.50000000  0.46731290  0.66750101  1
  C  C70  1  0.50000000  0.48003420  0.29105332  1
  C  C71  1  0.50000000  0.46727666  0.79126704  1
  C  C72  1  0.50000000  0.53568085  0.08246937  1
  C  C73  1  0.50000000  0.52853085  0.58416485  1
  C  C74  1  0.50000000  0.53223152  0.45944040  1
  C  C75  1  0.50000000  0.52837445  0.95765329  1
  C  C76  1  0.50000000  0.54100619  0.20805798  1
  C  C77  1  0.50000000  0.52858405  0.70861867  1
  C  C78  1  0.50000000  0.53998563  0.33354753  1
  C  C79  1  0.50000000  0.52861424  0.83275198  1
  C  C80  1  0.50000000  0.56678918  0.10240836  1
  C  C81  1  0.50000000  0.55926248  0.60518845  1
  C  C82  1  0.50000000  0.56065774  0.48260411  1
  C  C83  1  0.50000000  0.55975898  0.97744867  1
  C  C84  1  0.50000000  0.57101527  0.22999707  1
  C  C85  1  0.50000000  0.55926059  0.72933843  1
  C  C86  1  0.50000000  0.56875782  0.35760310  1
  C  C87  1  0.50000000  0.55930208  0.85348640  1
  C  C88  1  0.50000000  0.50018853  0.02154858  1
  C  C89  1  0.50000000  0.49811989  0.52041077  1
  C  C90  1  0.50000000  0.50696239  0.39394891  1
  C  C91  1  0.50000000  0.49796554  0.89485859  1
  C  C92  1  0.50000000  0.50864995  0.14716308  1
  C  C93  1  0.50000000  0.49794422  0.64659714  1
  C  C94  1  0.50000000  0.51064065  0.27061663  1
  C  C95  1  0.50000000  0.49795908  0.77069244  1
  C  C96  1  0.50000000  0.53220264  0.04044247  1
  C  C97  1  0.50000000  0.52836228  0.54227921  1
  C  C98  1  0.50000000  0.53578333  0.41737152  1
  C  C99  1  0.50000000  0.52854369  0.91580756  1
  C  C100  1  0.50000000  0.53998571  0.16621506  1
  C  C101  1  0.50000000  0.52859091  0.66725773  1
  C  C102  1  0.50000000  0.54103968  0.29169196  1
  C  C103  1  0.50000000  0.52859050  0.79139267  1
  C  C104  1  0.50000000  0.59042715  0.58518361  1
  C  C105  1  0.50000000  0.59108904  0.95607637  1
  C  C106  1  0.50000000  0.58995278  0.70870024  1
  C  C107  1  0.50000000  0.59006048  0.83271731  1
  C  C108  1  0.50000000  0.62100963  0.60592800  1
  C  C109  1  0.50000000  0.62156262  0.97490960  1
  C  C110  1  0.50000000  0.62055414  0.72938063  1
  C  C111  1  0.50000000  0.62079978  0.85291462  1
  C  C112  1  0.50000000  0.56064208  0.01733201  1
  C  C113  1  0.50000000  0.55976221  0.52250503  1
  C  C114  1  0.50000000  0.56687927  0.39737785  1
  C  C115  1  0.50000000  0.55928240  0.89481088  1
  C  C116  1  0.50000000  0.56876049  0.14216808  1
  C  C117  1  0.50000000  0.55927220  0.64651795  1
  C  C118  1  0.50000000  0.57103631  0.26971721  1
  C  C119  1  0.50000000  0.55926909  0.77067061  1
  C  C120  1  0.50000000  0.59106534  0.54393218  1
  C  C121  1  0.50000000  0.59045227  0.91482766  1
  C  C122  1  0.50000000  0.59003014  0.66729091  1
  C  C123  1  0.50000000  0.58996517  0.79130701  1
  C  C124  1  0.50000000  0.65204816  0.58585524  1
  C  C125  1  0.50000000  0.65222875  0.95526533  1
  C  C126  1  0.50000000  0.65148181  0.70882151  1
  C  C127  1  0.50000000  0.65168181  0.83232825  1
  C  C128  1  0.50000000  0.68295604  0.60587918  1
  C  C129  1  0.50000000  0.68274931  0.97557690  1
  C  C130  1  0.50000000  0.68218493  0.72921193  1
  C  C131  1  0.50000000  0.68258887  0.85245992  1
  C  C132  1  0.50000000  0.62154250  0.52515038  1
  C  C133  1  0.50000000  0.62103470  0.89408628  1
  C  C134  1  0.50000000  0.62076610  0.64709215  1
  C  C135  1  0.50000000  0.62055661  0.77061466  1
  C  C136  1  0.50000000  0.65219832  0.54479091  1
  C  C137  1  0.50000000  0.65207288  0.91417364  1
  C  C138  1  0.50000000  0.65165679  0.66765386  1
  C  C139  1  0.50000000  0.65148770  0.79116089  1
  C  C140  1  0.50000000  0.71271097  0.58460844  1
  C  C141  1  0.50000000  0.71262944  0.95562609  1
  C  C142  1  0.50000000  0.71219686  0.70829404  1
  C  C143  1  0.50000000  0.71235438  0.83123504  1
  C  C144  1  0.50000000  0.68270263  0.52448173  1
  C  C145  1  0.50000000  0.68297255  0.89410911  1
  C  C146  1  0.50000000  0.68256477  0.64752522  1
  C  C147  1  0.50000000  0.68217166  0.77072736  1
  C  C148  1  0.50000000  0.71260391  0.54435525  1
  C  C149  1  0.50000000  0.71270205  0.91538534  1
  C  C150  1  0.50000000  0.71236183  0.66868323  1
  C  C151  1  0.50000000  0.71216584  0.79164659  1
  H  H152  1  0.50000000  0.25912294  0.59879799  1
  H  H153  1  0.50000000  0.25998834  0.97195424  1
  H  H154  1  0.50000000  0.25936196  0.72309327  1
  H  H155  1  0.50000000  0.25920885  0.84623125  1
  H  H156  1  0.50000000  0.26002983  0.52807744  1
  H  H157  1  0.50000000  0.25901207  0.90152194  1
  H  H158  1  0.50000000  0.25930761  0.65351326  1
  H  H159  1  0.50000000  0.25930937  0.77699513  1
  H  H160  1  0.50000000  0.73666507  0.59947486  1
  H  H161  1  0.50000000  0.73632711  0.97115802  1
  H  H162  1  0.50000000  0.73602067  0.72335689  1
  H  H163  1  0.50000000  0.73634428  0.84596105  1
  H  H164  1  0.50000000  0.73620270  0.52860680  1
  H  H165  1  0.50000000  0.73669997  0.90063186  1
  H  H166  1  0.50000000  0.73623909  0.65367164  1
  H  H167  1  0.50000000  0.73602207  0.77668639  1
  H  H168  1  0.50000000  0.31395923  0.00750854  1
  H  H169  1  0.50000000  0.37562116  0.00612863  1
  H  H170  1  0.50000000  0.31390757  0.49259971  1
  H  H171  1  0.50000000  0.43178053  0.00431113  1
  H  H172  1  0.50000000  0.37558979  0.49391838  1
  H  H173  1  0.50000000  0.45266499  0.10337530  1
  H  H174  1  0.50000000  0.44713266  0.46059106  1
  H  H175  1  0.50000000  0.45636113  0.22407015  1
  H  H176  1  0.50000000  0.45457434  0.34395893  1
  H  H177  1  0.50000000  0.43192056  0.49554503  1
  H  H178  1  0.50000000  0.44717789  0.03895430  1
  H  H179  1  0.50000000  0.45287935  0.39625168  1
  H  H180  1  0.50000000  0.45466089  0.15551714  1
  H  H181  1  0.50000000  0.45647808  0.27553169  1
  H  H182  1  0.50000000  0.59029759  0.08650968  1
  H  H183  1  0.50000000  0.58471963  0.46829071  1
  H  H184  1  0.50000000  0.59507029  0.21523069  1
  H  H185  1  0.50000000  0.59343155  0.34425105  1
  H  H186  1  0.50000000  0.62309692  0.00627047  1
  H  H187  1  0.50000000  0.58473069  0.03157269  1
  H  H188  1  0.50000000  0.59043976  0.41319612  1
  H  H189  1  0.50000000  0.59349262  0.15537666  1
  H  H190  1  0.50000000  0.59511443  0.28441763  1
  H  H191  1  0.50000000  0.68246278  0.00709948  1
  H  H192  1  0.50000000  0.62309779  0.49381528  1
  H  H193  1  0.50000000  0.68240112  0.49298221  1
