# generated using pymatgen
data_H29C76
_symmetry_space_group_name_H-M   'P 1'
_cell_length_a   20.00000000
_cell_length_b   40.19450000
_cell_length_c   35.13716855
_cell_angle_alpha   90.00000000
_cell_angle_beta   90.00000000
_cell_angle_gamma   90.00000000
_symmetry_Int_Tables_number   1
_chemical_formula_structural   H29C76
_chemical_formula_sum   'H58 C152'
_cell_volume   28246.41842324
_cell_formula_units_Z   2
loop_
 _symmetry_equiv_pos_site_id
 _symmetry_equiv_pos_as_xyz
  1  'x, y, z'
loop_
 _atom_site_type_symbol
 _atom_site_label
 _atom_site_symmetry_multiplicity
 _atom_site_fract_x
 _atom_site_fract_y
 _atom_site_fract_z
 _atom_site_occupancy
  C  C0  1  0.50000000  0.28561363  0.07881166  1
  C  C1  1  0.50000000  0.28544468  0.58506058  1
  C  C2  1  0.50000000  0.28553600  0.46065870  1
  C  C3  1  0.50000000  0.28514172  0.95355386  1
  C  C4  1  0.50000000  0.28630254  0.20624822  1
  C  C5  1  0.50000000  0.28540910  0.70801199  1
  C  C6  1  0.50000000  0.28592422  0.33299139  1
  C  C7  1  0.50000000  0.28545676  0.83091507  1
  C  C8  1  0.50000000  0.31386253  0.10289538  1
  C  C9  1  0.50000000  0.31578353  0.60659170  1
  C  C10  1  0.50000000  0.31398724  0.48412158  1
  C  C11  1  0.50000000  0.31504017  0.97569765  1
  C  C12  1  0.50000000  0.31481188  0.23016599  1
  C  C13  1  0.50000000  0.31537336  0.72930787  1
  C  C14  1  0.50000000  0.31400917  0.35742934  1
  C  C15  1  0.50000000  0.31550105  0.85211585  1
  C  C16  1  0.50000000  0.28565521  0.03913074  1
  C  C17  1  0.50000000  0.28512700  0.54615765  1
  C  C18  1  0.50000000  0.28542508  0.42097821  1
  C  C19  1  0.50000000  0.28541074  0.91464317  1
  C  C20  1  0.50000000  0.28594625  0.16678455  1
  C  C21  1  0.50000000  0.28546042  0.66880308  1
  C  C22  1  0.50000000  0.28628966  0.29353229  1
  C  C23  1  0.50000000  0.28542361  0.79171441  1
  C  C24  1  0.50000000  0.34624870  0.58657413  1
  C  C25  1  0.50000000  0.34667352  0.95455563  1
  C  C26  1  0.50000000  0.34608571  0.70906944  1
  C  C27  1  0.50000000  0.34614621  0.83146131  1
  C  C28  1  0.50000000  0.37705625  0.60729529  1
  C  C29  1  0.50000000  0.37731856  0.97274664  1
  C  C30  1  0.50000000  0.37693736  0.72954040  1
  C  C31  1  0.50000000  0.37695703  0.85163975  1
  C  C32  1  0.50000000  0.31404534  0.01556987  1
  C  C33  1  0.50000000  0.31501354  0.52398575  1
  C  C34  1  0.50000000  0.31369853  0.39693023  1
  C  C35  1  0.50000000  0.31576565  0.89311894  1
  C  C36  1  0.50000000  0.31406702  0.14240065  1
  C  C37  1  0.50000000  0.31550940  0.64759590  1
  C  C38  1  0.50000000  0.31480893  0.26963852  1
  C  C39  1  0.50000000  0.31537632  0.77040356  1
  C  C40  1  0.50000000  0.34665615  0.54513754  1
  C  C41  1  0.50000000  0.34624212  0.91311601  1
  C  C42  1  0.50000000  0.34615649  0.66824310  1
  C  C43  1  0.50000000  0.34608553  0.79064073  1
  C  C44  1  0.50000000  0.40788968  0.58762143  1
  C  C45  1  0.50000000  0.40813544  0.95300751  1
  C  C46  1  0.50000000  0.40764605  0.70926082  1
  C  C47  1  0.50000000  0.40767675  0.83120260  1
  C  C48  1  0.50000000  0.43858765  0.60780660  1
  C  C49  1  0.50000000  0.43847184  0.97254740  1
  C  C50  1  0.50000000  0.43838942  0.72952828  1
  C  C51  1  0.50000000  0.43846297  0.85121398  1
  C  C52  1  0.50000000  0.37729713  0.52695021  1
  C  C53  1  0.50000000  0.37704587  0.89238803  1
  C  C54  1  0.50000000  0.37696909  0.64804353  1
  C  C55  1  0.50000000  0.37693585  0.77016527  1
  C  C56  1  0.50000000  0.40814693  0.54666733  1
  C  C57  1  0.50000000  0.40787803  0.91205776  1
  C  C58  1  0.50000000  0.40768641  0.66848285  1
  C  C59  1  0.50000000  0.40765133  0.79042884  1
  C  C60  1  0.50000000  0.46932165  0.58759640  1
  C  C61  1  0.50000000  0.46935808  0.95321752  1
  C  C62  1  0.50000000  0.46924818  0.70932739  1
  C  C63  1  0.50000000  0.46926670  0.83095210  1
  C  C64  1  0.50000000  0.50002321  0.60776563  1
  C  C65  1  0.50000000  0.49999424  0.97267651  1
  C  C66  1  0.50000000  0.50001538  0.72951616  1
  C  C67  1  0.50000000  0.50000845  0.85116154  1
  C  C68  1  0.50000000  0.43850516  0.52714910  1
  C  C69  1  0.50000000  0.43857686  0.89188658  1
  C  C70  1  0.50000000  0.43848071  0.64847771  1
  C  C71  1  0.50000000  0.43838935  0.77015212  1
  C  C72  1  0.50000000  0.46938802  0.54649828  1
  C  C73  1  0.50000000  0.46930304  0.91211223  1
  C  C74  1  0.50000000  0.46928421  0.66873459  1
  C  C75  1  0.50000000  0.46924432  0.79035420  1
  C  C76  1  0.50000000  0.53072726  0.58760666  1
  C  C77  1  0.50000000  0.53063541  0.95322962  1
  C  C78  1  0.50000000  0.53078922  0.70933357  1
  C  C79  1  0.50000000  0.53075258  0.83095873  1
  C  C80  1  0.50000000  0.56146180  0.60782086  1
  C  C81  1  0.50000000  0.56151777  0.97257100  1
  C  C82  1  0.50000000  0.56164339  0.72953875  1
  C  C83  1  0.50000000  0.56155394  0.85122753  1
  C  C84  1  0.50000000  0.50002744  0.52705589  1
  C  C85  1  0.50000000  0.50000552  0.89193897  1
  C  C86  1  0.50000000  0.50002986  0.64853582  1
  C  C87  1  0.50000000  0.50001181  0.77016570  1
  C  C88  1  0.50000000  0.53066218  0.54651106  1
  C  C89  1  0.50000000  0.53070335  0.91212325  1
  C  C90  1  0.50000000  0.53077207  0.66873986  1
  C  C91  1  0.50000000  0.53077631  0.79036028  1
  C  C92  1  0.50000000  0.59216257  0.58764362  1
  C  C93  1  0.50000000  0.59185817  0.95303612  1
  C  C94  1  0.50000000  0.59239166  0.70927786  1
  C  C95  1  0.50000000  0.59234355  0.83122245  1
  C  C96  1  0.50000000  0.62300596  0.60731665  1
  C  C97  1  0.50000000  0.62267493  0.97278020  1
  C  C98  1  0.50000000  0.62309907  0.72956379  1
  C  C99  1  0.50000000  0.62305615  0.85167425  1
  C  C100  1  0.50000000  0.56154421  0.52717071  1
  C  C101  1  0.50000000  0.56143356  0.89190307  1
  C  C102  1  0.50000000  0.56157726  0.64849158  1
  C  C103  1  0.50000000  0.56163421  0.77016271  1
  C  C104  1  0.50000000  0.59189994  0.54669202  1
  C  C105  1  0.50000000  0.59212615  0.91208635  1
  C  C106  1  0.50000000  0.59236902  0.66850141  1
  C  C107  1  0.50000000  0.59237122  0.79044509  1
  C  C108  1  0.50000000  0.65382306  0.58660467  1
  C  C109  1  0.50000000  0.65332195  0.95459663  1
  C  C110  1  0.50000000  0.65395587  0.70910039  1
  C  C111  1  0.50000000  0.65386802  0.83150156  1
  C  C112  1  0.50000000  0.68614227  0.10291597  1
  C  C113  1  0.50000000  0.68429168  0.60664816  1
  C  C114  1  0.50000000  0.68608865  0.48415678  1
  C  C115  1  0.50000000  0.68495135  0.97574516  1
  C  C116  1  0.50000000  0.68518947  0.23017368  1
  C  C117  1  0.50000000  0.68466128  0.72935123  1
  C  C118  1  0.50000000  0.68603865  0.35746727  1
  C  C119  1  0.50000000  0.68451008  0.85216341  1
  C  C120  1  0.50000000  0.62273676  0.52695609  1
  C  C121  1  0.50000000  0.62296221  0.89242302  1
  C  C122  1  0.50000000  0.62309190  0.64806774  1
  C  C123  1  0.50000000  0.62309052  0.77019108  1
  C  C124  1  0.50000000  0.65338713  0.54514073  1
  C  C125  1  0.50000000  0.65376247  0.91315896  1
  C  C126  1  0.50000000  0.65389574  0.66827529  1
  C  C127  1  0.50000000  0.65393530  0.79067970  1
  C  C128  1  0.50000000  0.71439568  0.07883939  1
  C  C129  1  0.50000000  0.71462948  0.58510813  1
  C  C130  1  0.50000000  0.71454166  0.46069431  1
  C  C131  1  0.50000000  0.71485288  0.95360832  1
  C  C132  1  0.50000000  0.71370670  0.20626375  1
  C  C133  1  0.50000000  0.71463372  0.70806408  1
  C  C134  1  0.50000000  0.71409654  0.33298851  1
  C  C135  1  0.50000000  0.71455463  0.83096354  1
  C  C136  1  0.50000000  0.68595687  0.01561438  1
  C  C137  1  0.50000000  0.68504410  0.52401635  1
  C  C138  1  0.50000000  0.68637890  0.39697151  1
  C  C139  1  0.50000000  0.68423977  0.89316606  1
  C  C140  1  0.50000000  0.68594186  0.14242075  1
  C  C141  1  0.50000000  0.68455518  0.64764826  1
  C  C142  1  0.50000000  0.68517607  0.26964202  1
  C  C143  1  0.50000000  0.68464753  0.77044565  1
  C  C144  1  0.50000000  0.71435382  0.03916020  1
  C  C145  1  0.50000000  0.71493489  0.54619969  1
  C  C146  1  0.50000000  0.71465862  0.42100758  1
  C  C147  1  0.50000000  0.71458903  0.91470075  1
  C  C148  1  0.50000000  0.71406344  0.16679858  1
  C  C149  1  0.50000000  0.71459866  0.66885974  1
  C  C150  1  0.50000000  0.71370550  0.29352878  1
  C  C151  1  0.50000000  0.71459860  0.79176218  1
  H  H152  1  0.50000000  0.26106844  0.09250486  1
  H  H153  1  0.50000000  0.26161371  0.60004142  1
  H  H154  1  0.50000000  0.26098808  0.47429138  1
  H  H155  1  0.50000000  0.26116574  0.96830871  1
  H  H156  1  0.50000000  0.26186179  0.22020234  1
  H  H157  1  0.50000000  0.26144014  0.72273820  1
  H  H158  1  0.50000000  0.26127290  0.34643207  1
  H  H159  1  0.50000000  0.26151431  0.84566069  1
  H  H160  1  0.50000000  0.26104735  0.02563551  1
  H  H161  1  0.50000000  0.26112342  0.53146606  1
  H  H162  1  0.50000000  0.26087032  0.40730968  1
  H  H163  1  0.50000000  0.26156676  0.89967751  1
  H  H164  1  0.50000000  0.26130840  0.15331789  1
  H  H165  1  0.50000000  0.26152194  0.65404820  1
  H  H166  1  0.50000000  0.26185750  0.27956203  1
  H  H167  1  0.50000000  0.26145813  0.77699639  1
  H  H168  1  0.50000000  0.73893875  0.09253918  1
  H  H169  1  0.50000000  0.73845614  0.60009104  1
  H  H170  1  0.50000000  0.73909483  0.47430839  1
  H  H171  1  0.50000000  0.73882188  0.96837715  1
  H  H172  1  0.50000000  0.73814487  0.22021684  1
  H  H173  1  0.50000000  0.73859992  0.72279403  1
  H  H174  1  0.50000000  0.73875451  0.34640457  1
  H  H175  1  0.50000000  0.73848801  0.84572379  1
  H  H176  1  0.50000000  0.73896073  0.02566207  1
  H  H177  1  0.50000000  0.73894496  0.53151880  1
  H  H178  1  0.50000000  0.73921650  0.40734275  1
  H  H179  1  0.50000000  0.73842976  0.89973124  1
  H  H180  1  0.50000000  0.73869701  0.15331911  1
  H  H181  1  0.50000000  0.73854169  0.65411644  1
  H  H182  1  0.50000000  0.73812963  0.27954490  1
  H  H183  1  0.50000000  0.73856589  0.77704574  1
  H  H184  1  0.50000000  0.33840439  0.08919356  1
  H  H185  1  0.50000000  0.33788821  0.46924183  1
  H  H186  1  0.50000000  0.33931837  0.21632677  1
  H  H187  1  0.50000000  0.33865587  0.34396167  1
  H  H188  1  0.50000000  0.37881898  0.00384628  1
  H  H189  1  0.50000000  0.33797405  0.03038174  1
  H  H190  1  0.50000000  0.33821622  0.41068877  1
  H  H191  1  0.50000000  0.33865665  0.15598319  1
  H  H192  1  0.50000000  0.33930820  0.28350328  1
  H  H193  1  0.50000000  0.43823239  0.00376853  1
  H  H194  1  0.50000000  0.37875680  0.49584576  1
  H  H195  1  0.50000000  0.49999144  0.00390035  1
  H  H196  1  0.50000000  0.43830880  0.49593566  1
  H  H197  1  0.50000000  0.56175146  0.00379308  1
  H  H198  1  0.50000000  0.50003562  0.49584324  1
  H  H199  1  0.50000000  0.62118182  0.00387963  1
  H  H200  1  0.50000000  0.56175520  0.49595849  1
  H  H201  1  0.50000000  0.66159950  0.08921148  1
  H  H202  1  0.50000000  0.66218616  0.46927793  1
  H  H203  1  0.50000000  0.66069491  0.21630500  1
  H  H204  1  0.50000000  0.66138676  0.34401848  1
  H  H205  1  0.50000000  0.62129292  0.49585837  1
  H  H206  1  0.50000000  0.66203227  0.03043378  1
  H  H207  1  0.50000000  0.66186911  0.41075216  1
  H  H208  1  0.50000000  0.66135758  0.15601723  1
  H  H209  1  0.50000000  0.66067858  0.28351267  1
