# generated using pymatgen
data_H21C76
_symmetry_space_group_name_H-M   'P 1'
_cell_length_a   20.00000000
_cell_length_b   40.19450000
_cell_length_c   34.77040315
_cell_angle_alpha   90.00000000
_cell_angle_beta   90.00000000
_cell_angle_gamma   90.00000000
_symmetry_Int_Tables_number   1
_chemical_formula_structural   H21C76
_chemical_formula_sum   'H42 C152'
_cell_volume   27951.57938746
_cell_formula_units_Z   2
loop_
 _symmetry_equiv_pos_site_id
 _symmetry_equiv_pos_as_xyz
  1  'x, y, z'
loop_
 _atom_site_type_symbol
 _atom_site_label
 _atom_site_symmetry_multiplicity
 _atom_site_fract_x
 _atom_site_fract_y
 _atom_site_fract_z
 _atom_site_occupancy
  C  C0  1  0.50000000  0.28285935  0.58703339  1
  C  C1  1  0.50000000  0.28195748  0.95272519  1
  C  C2  1  0.50000000  0.28447036  0.70839289  1
  C  C3  1  0.50000000  0.28445069  0.83122130  1
  C  C4  1  0.50000000  0.31370884  0.60588178  1
  C  C5  1  0.50000000  0.31138110  0.97359272  1
  C  C6  1  0.50000000  0.31447002  0.72926917  1
  C  C7  1  0.50000000  0.31428306  0.85251665  1
  C  C8  1  0.50000000  0.28178302  0.54740933  1
  C  C9  1  0.50000000  0.28295081  0.91309985  1
  C  C10  1  0.50000000  0.28439505  0.66883019  1
  C  C11  1  0.50000000  0.28448751  0.79166931  1
  C  C12  1  0.50000000  0.35234075  0.08660893  1
  C  C13  1  0.50000000  0.34416836  0.58437854  1
  C  C14  1  0.50000000  0.34936359  0.45232288  1
  C  C15  1  0.50000000  0.34349500  0.95713250  1
  C  C16  1  0.50000000  0.35644155  0.20859771  1
  C  C17  1  0.50000000  0.34503574  0.70875194  1
  C  C18  1  0.50000000  0.35541389  0.33035411  1
  C  C19  1  0.50000000  0.34497110  0.83247082  1
  C  C20  1  0.50000000  0.38337500  0.10571485  1
  C  C21  1  0.50000000  0.37520297  0.60510064  1
  C  C22  1  0.50000000  0.37686789  0.47844908  1
  C  C23  1  0.50000000  0.37490301  0.97935001  1
  C  C24  1  0.50000000  0.38703715  0.22911175  1
  C  C25  1  0.50000000  0.37577777  0.72941996  1
  C  C26  1  0.50000000  0.38506197  0.35269958  1
  C  C27  1  0.50000000  0.37560360  0.85349940  1
  C  C28  1  0.50000000  0.31116334  0.52640855  1
  C  C29  1  0.50000000  0.31377780  0.89416322  1
  C  C30  1  0.50000000  0.31423070  0.64753576  1
  C  C31  1  0.50000000  0.31446688  0.77075890  1
  C  C32  1  0.50000000  0.34950079  0.04745133  1
  C  C33  1  0.50000000  0.34332247  0.54280892  1
  C  C34  1  0.50000000  0.35230519  0.41315996  1
  C  C35  1  0.50000000  0.34429375  0.91558283  1
  C  C36  1  0.50000000  0.35546477  0.16933640  1
  C  C37  1  0.50000000  0.34492340  0.66755279  1
  C  C38  1  0.50000000  0.35641757  0.29108067  1
  C  C39  1  0.50000000  0.34504346  0.79127179  1
  C  C40  1  0.50000000  0.41227986  0.08241092  1
  C  C41  1  0.50000000  0.40553919  0.58417633  1
  C  C42  1  0.50000000  0.40885614  0.45949605  1
  C  C43  1  0.50000000  0.40529529  0.95755974  1
  C  C44  1  0.50000000  0.41744510  0.20803510  1
  C  C45  1  0.50000000  0.40621245  0.70862645  1
  C  C46  1  0.50000000  0.41639837  0.33359404  1
  C  C47  1  0.50000000  0.40616661  0.83282081  1
  C  C48  1  0.50000000  0.44332818  0.10241426  1
  C  C49  1  0.50000000  0.43645500  0.60515282  1
  C  C50  1  0.50000000  0.43736386  0.48257021  1
  C  C51  1  0.50000000  0.43671959  0.97736777  1
  C  C52  1  0.50000000  0.44743751  0.22998104  1
  C  C53  1  0.50000000  0.43682339  0.72932355  1
  C  C54  1  0.50000000  0.44522219  0.35758969  1
  C  C55  1  0.50000000  0.43677630  0.85348189  1
  C  C56  1  0.50000000  0.37702232  0.02139364  1
  C  C57  1  0.50000000  0.37474537  0.52053988  1
  C  C58  1  0.50000000  0.38335074  0.39408004  1
  C  C59  1  0.50000000  0.37533097  0.89486883  1
  C  C60  1  0.50000000  0.38513218  0.14706549  1
  C  C61  1  0.50000000  0.37551617  0.64647092  1
  C  C62  1  0.50000000  0.38702870  0.27061454  1
  C  C63  1  0.50000000  0.37578621  0.77059217  1
  C  C64  1  0.50000000  0.40898125  0.04034362  1
  C  C65  1  0.50000000  0.40515961  0.54232052  1
  C  C66  1  0.50000000  0.41224130  0.41739842  1
  C  C67  1  0.50000000  0.40568012  0.91575153  1
  C  C68  1  0.50000000  0.41647398  0.16616976  1
  C  C69  1  0.50000000  0.40608201  0.66714317  1
  C  C70  1  0.50000000  0.41742106  0.29171519  1
  C  C71  1  0.50000000  0.40625212  0.79134429  1
  C  C72  1  0.50000000  0.46744530  0.58520136  1
  C  C73  1  0.50000000  0.46812225  0.95600234  1
  C  C74  1  0.50000000  0.46748513  0.70862304  1
  C  C75  1  0.50000000  0.46750476  0.83252101  1
  C  C76  1  0.50000000  0.49813883  0.60605252  1
  C  C77  1  0.50000000  0.49858318  0.97481419  1
  C  C78  1  0.50000000  0.49819388  0.72932071  1
  C  C79  1  0.50000000  0.49827770  0.85269180  1
  C  C80  1  0.50000000  0.43749985  0.01728953  1
  C  C81  1  0.50000000  0.43657432  0.52251052  1
  C  C82  1  0.50000000  0.44329842  0.39735980  1
  C  C83  1  0.50000000  0.43659574  0.89478896  1
  C  C84  1  0.50000000  0.44529022  0.14216058  1
  C  C85  1  0.50000000  0.43666780  0.64646723  1
  C  C86  1  0.50000000  0.44742139  0.26976344  1
  C  C87  1  0.50000000  0.43685295  0.77063625  1
  C  C88  1  0.50000000  0.46795499  0.54393591  1
  C  C89  1  0.50000000  0.46759193  0.91474855  1
  C  C90  1  0.50000000  0.46739893  0.66742735  1
  C  C91  1  0.50000000  0.46753866  0.79132026  1
  C  C92  1  0.50000000  0.52896383  0.58614398  1
  C  C93  1  0.50000000  0.52933482  0.95512286  1
  C  C94  1  0.50000000  0.52893982  0.70894380  1
  C  C95  1  0.50000000  0.52901863  0.83211872  1
  C  C96  1  0.50000000  0.55972295  0.60644233  1
  C  C97  1  0.50000000  0.55960749  0.97514161  1
  C  C98  1  0.50000000  0.55978142  0.72943392  1
  C  C99  1  0.50000000  0.55986297  0.85245501  1
  C  C100  1  0.50000000  0.49842154  0.52516855  1
  C  C101  1  0.50000000  0.49829174  0.89390700  1
  C  C102  1  0.50000000  0.49815867  0.64726094  1
  C  C103  1  0.50000000  0.49822300  0.77061076  1
  C  C104  1  0.50000000  0.52914364  0.54488915  1
  C  C105  1  0.50000000  0.52913418  0.91383400  1
  C  C106  1  0.50000000  0.52890198  0.66783465  1
  C  C107  1  0.50000000  0.52898909  0.79099811  1
  C  C108  1  0.50000000  0.59032289  0.58584893  1
  C  C109  1  0.50000000  0.59038933  0.95569926  1
  C  C110  1  0.50000000  0.59055633  0.70901023  1
  C  C111  1  0.50000000  0.59067227  0.83214093  1
  C  C112  1  0.50000000  0.62104698  0.60597823  1
  C  C113  1  0.50000000  0.62082255  0.97561341  1
  C  C114  1  0.50000000  0.62125181  0.72939796  1
  C  C115  1  0.50000000  0.62126311  0.85272612  1
  C  C116  1  0.50000000  0.55939596  0.52489018  1
  C  C117  1  0.50000000  0.55990414  0.89352489  1
  C  C118  1  0.50000000  0.55971525  0.64749372  1
  C  C119  1  0.50000000  0.55981691  0.77049841  1
  C  C120  1  0.50000000  0.59017506  0.54428485  1
  C  C121  1  0.50000000  0.59052749  0.91410821  1
  C  C122  1  0.50000000  0.59053494  0.66777420  1
  C  C123  1  0.50000000  0.59061915  0.79090366  1
  C  C124  1  0.50000000  0.65170388  0.58511233  1
  C  C125  1  0.50000000  0.65152512  0.95617677  1
  C  C126  1  0.50000000  0.65209975  0.70867035  1
  C  C127  1  0.50000000  0.65224074  0.83238475  1
  C  C128  1  0.50000000  0.68272308  0.60497279  1
  C  C129  1  0.50000000  0.68213239  0.97654863  1
  C  C130  1  0.50000000  0.68282873  0.72903446  1
  C  C131  1  0.50000000  0.68296295  0.85296407  1
  C  C132  1  0.50000000  0.62056831  0.52430721  1
  C  C133  1  0.50000000  0.62124945  0.89391701  1
  C  C134  1  0.50000000  0.62109065  0.64715764  1
  C  C135  1  0.50000000  0.62129628  0.77048595  1
  C  C136  1  0.50000000  0.65129979  0.54366381  1
  C  C137  1  0.50000000  0.65195409  0.91472238  1
  C  C138  1  0.50000000  0.65206336  0.66745526  1
  C  C139  1  0.50000000  0.65218997  0.79115356  1
  C  C140  1  0.50000000  0.71231915  0.58336997  1
  C  C141  1  0.50000000  0.71209392  0.95681606  1
  C  C142  1  0.50000000  0.71266226  0.70767266  1
  C  C143  1  0.50000000  0.71278266  0.83166243  1
  C  C144  1  0.50000000  0.68191292  0.52327040  1
  C  C145  1  0.50000000  0.68300694  0.89483283  1
  C  C146  1  0.50000000  0.68271327  0.64680273  1
  C  C147  1  0.50000000  0.68287307  0.77068430  1
  C  C148  1  0.50000000  0.71185931  0.54305505  1
  C  C149  1  0.50000000  0.71260317  0.91648366  1
  C  C150  1  0.50000000  0.71258156  0.66796292  1
  C  C151  1  0.50000000  0.71275670  0.79194152  1
  H  H152  1  0.50000000  0.25962936  0.60321805  1
  H  H153  1  0.50000000  0.25819386  0.96815829  1
  H  H154  1  0.50000000  0.26062844  0.72342478  1
  H  H155  1  0.50000000  0.26040047  0.84572289  1
  H  H156  1  0.50000000  0.25794174  0.53214420  1
  H  H157  1  0.50000000  0.25963039  0.89710196  1
  H  H158  1  0.50000000  0.26036834  0.65427093  1
  H  H159  1  0.50000000  0.26058363  0.77679130  1
  H  H160  1  0.50000000  0.73640669  0.59792696  1
  H  H161  1  0.50000000  0.73561193  0.97275881  1
  H  H162  1  0.50000000  0.73666219  0.72240023  1
  H  H163  1  0.50000000  0.73677407  0.84645082  1
  H  H164  1  0.50000000  0.73546671  0.52731409  1
  H  H165  1  0.50000000  0.73672505  0.90197522  1
  H  H166  1  0.50000000  0.73646183  0.65295713  1
  H  H167  1  0.50000000  0.73671744  0.77710933  1
  H  H168  1  0.50000000  0.30742298  0.00407276  1
  H  H169  1  0.50000000  0.32919171  0.10299560  1
  H  H170  1  0.50000000  0.32383133  0.46148200  1
  H  H171  1  0.50000000  0.33283214  0.22405096  1
  H  H172  1  0.50000000  0.33101877  0.34414473  1
  H  H173  1  0.50000000  0.30717147  0.49590102  1
  H  H174  1  0.50000000  0.32400533  0.03819884  1
  H  H175  1  0.50000000  0.32926736  0.39654961  1
  H  H176  1  0.50000000  0.33112992  0.15535921  1
  H  H177  1  0.50000000  0.33283581  0.27557493  1
  H  H178  1  0.50000000  0.46682265  0.08650007  1
  H  H179  1  0.50000000  0.46135512  0.46811153  1
  H  H180  1  0.50000000  0.47138997  0.21503439  1
  H  H181  1  0.50000000  0.46994265  0.34432051  1
  H  H182  1  0.50000000  0.50000158  0.00620613  1
  H  H183  1  0.50000000  0.46150307  0.03171356  1
  H  H184  1  0.50000000  0.46679115  0.41329378  1
  H  H185  1  0.50000000  0.47008285  0.15521411  1
  H  H186  1  0.50000000  0.47138216  0.28468834  1
  H  H187  1  0.50000000  0.55935763  0.00670685  1
  H  H188  1  0.50000000  0.49990947  0.49381176  1
  H  H189  1  0.50000000  0.62067950  0.00716272  1
  H  H190  1  0.50000000  0.55915663  0.49336924  1
  H  H191  1  0.50000000  0.68165332  0.00805620  1
  H  H192  1  0.50000000  0.62033803  0.49277709  1
  H  H193  1  0.50000000  0.68139248  0.49174575  1
