# generated using pymatgen
data_H21C76
_symmetry_space_group_name_H-M   'P 1'
_cell_length_a   20.00000000
_cell_length_b   40.19450000
_cell_length_c   34.79281600
_cell_angle_alpha   90.00000000
_cell_angle_beta   90.00000000
_cell_angle_gamma   90.00000000
_symmetry_Int_Tables_number   1
_chemical_formula_structural   H21C76
_chemical_formula_sum   'H42 C152'
_cell_volume   27969.59685822
_cell_formula_units_Z   2
loop_
 _symmetry_equiv_pos_site_id
 _symmetry_equiv_pos_as_xyz
  1  'x, y, z'
loop_
 _atom_site_type_symbol
 _atom_site_label
 _atom_site_symmetry_multiplicity
 _atom_site_fract_x
 _atom_site_fract_y
 _atom_site_fract_z
 _atom_site_occupancy
  C  C0  1  0.50000000  0.28701281  0.58532457  1
  C  C1  1  0.50000000  0.28657612  0.95453328  1
  C  C2  1  0.50000000  0.28816307  0.70823076  1
  C  C3  1  0.50000000  0.28803748  0.83126661  1
  C  C4  1  0.50000000  0.31729926  0.60565900  1
  C  C5  1  0.50000000  0.31634804  0.97494267  1
  C  C6  1  0.50000000  0.31817376  0.72914998  1
  C  C7  1  0.50000000  0.31781321  0.85260823  1
  C  C8  1  0.50000000  0.28654632  0.54543237  1
  C  C9  1  0.50000000  0.28705989  0.91461873  1
  C  C10  1  0.50000000  0.28804207  0.66863093  1
  C  C11  1  0.50000000  0.28816546  0.79167046  1
  C  C12  1  0.50000000  0.34797642  0.58490336  1
  C  C13  1  0.50000000  0.34727701  0.95598625  1
  C  C14  1  0.50000000  0.34877113  0.70856546  1
  C  C15  1  0.50000000  0.34864360  0.83258243  1
  C  C16  1  0.50000000  0.37172225  0.10251369  1
  C  C17  1  0.50000000  0.37936063  0.60510442  1
  C  C18  1  0.50000000  0.37761852  0.48254869  1
  C  C19  1  0.50000000  0.37854961  0.97737047  1
  C  C20  1  0.50000000  0.36749801  0.22997215  1
  C  C21  1  0.50000000  0.37952656  0.72932747  1
  C  C22  1  0.50000000  0.36975311  0.35749563  1
  C  C23  1  0.50000000  0.37946131  0.85357119  1
  C  C24  1  0.50000000  0.31632246  0.52503128  1
  C  C25  1  0.50000000  0.31731465  0.89426494  1
  C  C26  1  0.50000000  0.31781736  0.64732023  1
  C  C27  1  0.50000000  0.31816190  0.77071077  1
  C  C28  1  0.50000000  0.34726662  0.54395184  1
  C  C29  1  0.50000000  0.34797125  0.91503485  1
  C  C30  1  0.50000000  0.34865511  0.66729787  1
  C  C31  1  0.50000000  0.34874806  0.79130698  1
  C  C32  1  0.50000000  0.40275864  0.08248094  1
  C  C33  1  0.50000000  0.40992619  0.58415447  1
  C  C34  1  0.50000000  0.40608172  0.45943296  1
  C  C35  1  0.50000000  0.41002551  0.95764595  1
  C  C36  1  0.50000000  0.39753593  0.20805365  1
  C  C37  1  0.50000000  0.41005907  0.70859098  1
  C  C38  1  0.50000000  0.39854859  0.33351353  1
  C  C39  1  0.50000000  0.41004390  0.83279708  1
  C  C40  1  0.50000000  0.43163817  0.10579781  1
  C  C41  1  0.50000000  0.44062473  0.60512633  1
  C  C42  1  0.50000000  0.43812147  0.47836136  1
  C  C43  1  0.50000000  0.44027107  0.97945227  1
  C  C44  1  0.50000000  0.42796086  0.22909587  1
  C  C45  1  0.50000000  0.44067215  0.72932482  1
  C  C46  1  0.50000000  0.42985720  0.35263185  1
  C  C47  1  0.50000000  0.44069497  0.85340864  1
  C  C48  1  0.50000000  0.37759827  0.01731291  1
  C  C49  1  0.50000000  0.37853295  0.52251399  1
  C  C50  1  0.50000000  0.37164294  0.39725358  1
  C  C51  1  0.50000000  0.37936671  0.89486019  1
  C  C52  1  0.50000000  0.36977239  0.14225364  1
  C  C53  1  0.50000000  0.37946210  0.64638857  1
  C  C54  1  0.50000000  0.36748296  0.26971388  1
  C  C55  1  0.50000000  0.37952324  0.77057043  1
  C  C56  1  0.50000000  0.40606636  0.04038777  1
  C  C57  1  0.50000000  0.40999984  0.54227029  1
  C  C58  1  0.50000000  0.40268293  0.41731462  1
  C  C59  1  0.50000000  0.40993325  0.91577125  1
  C  C60  1  0.50000000  0.39857371  0.16622830  1
  C  C61  1  0.50000000  0.41003881  0.66714674  1
  C  C62  1  0.50000000  0.39751559  0.29166104  1
  C  C63  1  0.50000000  0.41005430  0.79134864  1
  C  C64  1  0.50000000  0.46269290  0.08674844  1
  C  C65  1  0.50000000  0.47128661  0.58457514  1
  C  C66  1  0.50000000  0.46552652  0.45209868  1
  C  C67  1  0.50000000  0.47168704  0.95716634  1
  C  C68  1  0.50000000  0.45859458  0.20860217  1
  C  C69  1  0.50000000  0.47138384  0.70870034  1
  C  C70  1  0.50000000  0.45951333  0.33034958  1
  C  C71  1  0.50000000  0.47135933  0.83242285  1
  C  C72  1  0.50000000  0.50198359  0.60597104  1
  C  C73  1  0.50000000  0.50313274  0.97377494  1
  C  C74  1  0.50000000  0.50210625  0.72937502  1
  C  C75  1  0.50000000  0.50205344  0.85271235  1
  C  C76  1  0.50000000  0.43807629  0.02143852  1
  C  C77  1  0.50000000  0.44026519  0.52041537  1
  C  C78  1  0.50000000  0.43154257  0.39397416  1
  C  C79  1  0.50000000  0.44063355  0.89481571  1
  C  C80  1  0.50000000  0.42988314  0.14711342  1
  C  C81  1  0.50000000  0.44067521  0.64653539  1
  C  C82  1  0.50000000  0.42794108  0.27059887  1
  C  C83  1  0.50000000  0.44066747  0.77061736  1
  C  C84  1  0.50000000  0.46552025  0.04763164  1
  C  C85  1  0.50000000  0.47168758  0.54273524  1
  C  C86  1  0.50000000  0.46259459  0.41298630  1
  C  C87  1  0.50000000  0.47130623  0.91534842  1
  C  C88  1  0.50000000  0.45952705  0.16936726  1
  C  C89  1  0.50000000  0.47133454  0.66752140  1
  C  C90  1  0.50000000  0.45856125  0.29109812  1
  C  C91  1  0.50000000  0.47138970  0.79124491  1
  C  C92  1  0.50000000  0.53315706  0.58691613  1
  C  C93  1  0.50000000  0.53353034  0.95389635  1
  C  C94  1  0.50000000  0.53286703  0.70900278  1
  C  C95  1  0.50000000  0.53287025  0.83206413  1
  C  C96  1  0.50000000  0.56392914  0.60703059  1
  C  C97  1  0.50000000  0.56358636  0.97430952  1
  C  C98  1  0.50000000  0.56377170  0.72949365  1
  C  C99  1  0.50000000  0.56388764  0.85207237  1
  C  C100  1  0.50000000  0.50313565  0.52610406  1
  C  C101  1  0.50000000  0.50201212  0.89397392  1
  C  C102  1  0.50000000  0.50202476  0.64723543  1
  C  C103  1  0.50000000  0.50211534  0.77060409  1
  C  C104  1  0.50000000  0.53352864  0.54604213  1
  C  C105  1  0.50000000  0.53318573  0.91303443  1
  C  C106  1  0.50000000  0.53283682  0.66791321  1
  C  C107  1  0.50000000  0.53288160  0.79098477  1
  C  C108  1  0.50000000  0.59452990  0.58638120  1
  C  C109  1  0.50000000  0.59441057  0.95516912  1
  C  C110  1  0.50000000  0.59467063  0.70923745  1
  C  C111  1  0.50000000  0.59474112  0.83189949  1
  C  C112  1  0.50000000  0.62528182  0.60641575  1
  C  C113  1  0.50000000  0.62475772  0.97523807  1
  C  C114  1  0.50000000  0.62542451  0.72952370  1
  C  C115  1  0.50000000  0.62534087  0.85250751  1
  C  C116  1  0.50000000  0.56361885  0.52569543  1
  C  C117  1  0.50000000  0.56396661  0.89295600  1
  C  C118  1  0.50000000  0.56385552  0.64791798  1
  C  C119  1  0.50000000  0.56378705  0.77051078  1
  C  C120  1  0.50000000  0.59443183  0.54486464  1
  C  C121  1  0.50000000  0.59454963  0.91364479  1
  C  C122  1  0.50000000  0.59470930  0.66810822  1
  C  C123  1  0.50000000  0.59469348  0.79077251  1
  C  C124  1  0.50000000  0.65597636  0.58556935  1
  C  C125  1  0.50000000  0.65551727  0.95595310  1
  C  C126  1  0.50000000  0.65632703  0.70888557  1
  C  C127  1  0.50000000  0.65638452  0.83230804  1
  C  C128  1  0.50000000  0.68702576  0.60537806  1
  C  C129  1  0.50000000  0.68611111  0.97637405  1
  C  C130  1  0.50000000  0.68706905  0.72922888  1
  C  C131  1  0.50000000  0.68710169  0.85289397  1
  C  C132  1  0.50000000  0.62480626  0.52485831  1
  C  C133  1  0.50000000  0.62531326  0.89363698  1
  C  C134  1  0.50000000  0.62531268  0.64753019  1
  C  C135  1  0.50000000  0.62544881  0.77050424  1
  C  C136  1  0.50000000  0.65555624  0.54415416  1
  C  C137  1  0.50000000  0.65599611  0.91451769  1
  C  C138  1  0.50000000  0.65633511  0.66774945  1
  C  C139  1  0.50000000  0.65636139  0.79114961  1
  C  C140  1  0.50000000  0.71664004  0.58380034  1
  C  C141  1  0.50000000  0.71609277  0.95668553  1
  C  C142  1  0.50000000  0.71694896  0.70800570  1
  C  C143  1  0.50000000  0.71695719  0.83164722  1
  C  C144  1  0.50000000  0.68618209  0.52378695  1
  C  C145  1  0.50000000  0.68707442  0.89472424  1
  C  C146  1  0.50000000  0.68702870  0.64716486  1
  C  C147  1  0.50000000  0.68707872  0.77075330  1
  C  C148  1  0.50000000  0.71614737  0.54352213  1
  C  C149  1  0.50000000  0.71665582  0.91639335  1
  C  C150  1  0.50000000  0.71691479  0.66832374  1
  C  C151  1  0.50000000  0.71695821  0.79195599  1
  H  H152  1  0.50000000  0.26330918  0.60063093  1
  H  H153  1  0.50000000  0.26279999  0.96993750  1
  H  H154  1  0.50000000  0.26433727  0.72328809  1
  H  H155  1  0.50000000  0.26400605  0.84587107  1
  H  H156  1  0.50000000  0.26277524  0.53000824  1
  H  H157  1  0.50000000  0.26340979  0.89920786  1
  H  H158  1  0.50000000  0.26411052  0.65381141  1
  H  H159  1  0.50000000  0.26426766  0.77676604  1
  H  H160  1  0.50000000  0.74074863  0.59834578  1
  H  H161  1  0.50000000  0.73961020  0.97261624  1
  H  H162  1  0.50000000  0.74094518  0.72278225  1
  H  H163  1  0.50000000  0.74097586  0.84638118  1
  H  H164  1  0.50000000  0.73973526  0.52774594  1
  H  H165  1  0.50000000  0.74081775  0.90195830  1
  H  H166  1  0.50000000  0.74085957  0.65341248  1
  H  H167  1  0.50000000  0.74096833  0.77722036  1
  H  H168  1  0.50000000  0.31489945  0.00629713  1
  H  H169  1  0.50000000  0.34827600  0.08655784  1
  H  H170  1  0.50000000  0.35353150  0.46825003  1
  H  H171  1  0.50000000  0.34340981  0.21524102  1
  H  H172  1  0.50000000  0.34509251  0.34413094  1
  H  H173  1  0.50000000  0.31485310  0.49369840  1
  H  H174  1  0.50000000  0.35348667  0.03152569  1
  H  H175  1  0.50000000  0.34813466  0.41312355  1
  H  H176  1  0.50000000  0.34506071  0.15547413  1
  H  H177  1  0.50000000  0.34337247  0.28437883  1
  H  H178  1  0.50000000  0.48592273  0.10301703  1
  H  H179  1  0.50000000  0.49110996  0.46093304  1
  H  H180  1  0.50000000  0.48228786  0.22390461  1
  H  H181  1  0.50000000  0.48388392  0.34414771  1
  H  H182  1  0.50000000  0.50686724  0.00423492  1
  H  H183  1  0.50000000  0.49104083  0.03855752  1
  H  H184  1  0.50000000  0.48573003  0.39654341  1
  H  H185  1  0.50000000  0.48381301  0.15534972  1
  H  H186  1  0.50000000  0.48219641  0.27569214  1
  H  H187  1  0.50000000  0.56299713  0.00583838  1
  H  H188  1  0.50000000  0.50675247  0.49559826  1
  H  H189  1  0.50000000  0.62441895  0.00676080  1
  H  H190  1  0.50000000  0.56302855  0.49417900  1
  H  H191  1  0.50000000  0.68568712  0.00786556  1
  H  H192  1  0.50000000  0.62450816  0.49336471  1
  H  H193  1  0.50000000  0.68577579  0.49229183  1
