# generated using pymatgen
data_HC4
_symmetry_space_group_name_H-M   'P 1'
_cell_length_a   20.00000000
_cell_length_b   40.19450000
_cell_length_c   34.49160304
_cell_angle_alpha   90.00000000
_cell_angle_beta   90.00000000
_cell_angle_gamma   90.00000000
_symmetry_Int_Tables_number   1
_chemical_formula_structural   HC4
_chemical_formula_sum   'H40 C160'
_cell_volume   27727.45476702
_cell_formula_units_Z   40
loop_
 _symmetry_equiv_pos_site_id
 _symmetry_equiv_pos_as_xyz
  1  'x, y, z'
loop_
 _atom_site_type_symbol
 _atom_site_label
 _atom_site_symmetry_multiplicity
 _atom_site_fract_x
 _atom_site_fract_y
 _atom_site_fract_z
 _atom_site_occupancy
  C  C0  1  0.50000000  0.28544014  0.58261500  1
  C  C1  1  0.50000000  0.28542851  0.95717592  1
  C  C2  1  0.50000000  0.28576877  0.70759055  1
  C  C3  1  0.50000000  0.28568825  0.83228584  1
  C  C4  1  0.50000000  0.31619634  0.10444250  1
  C  C5  1  0.50000000  0.31554401  0.60436878  1
  C  C6  1  0.50000000  0.31619692  0.48077318  1
  C  C7  1  0.50000000  0.31581425  0.97830135  1
  C  C8  1  0.50000000  0.31632142  0.22989119  1
  C  C9  1  0.50000000  0.31578613  0.72906083  1
  C  C10  1  0.50000000  0.31627869  0.35524631  1
  C  C11  1  0.50000000  0.31565392  0.85378994  1
  C  C12  1  0.50000000  0.28548512  0.54275158  1
  C  C13  1  0.50000000  0.28541093  0.91729986  1
  C  C14  1  0.50000000  0.28572213  0.66768591  1
  C  C15  1  0.50000000  0.28573553  0.79238101  1
  C  C16  1  0.50000000  0.34580568  0.08281987  1
  C  C17  1  0.50000000  0.34635318  0.58400774  1
  C  C18  1  0.50000000  0.34564731  0.45944906  1
  C  C19  1  0.50000000  0.34646510  0.95734905  1
  C  C20  1  0.50000000  0.34600037  0.20830959  1
  C  C21  1  0.50000000  0.34646686  0.70844675  1
  C  C22  1  0.50000000  0.34599680  0.33375814  1
  C  C23  1  0.50000000  0.34641532  0.83308523  1
  C  C24  1  0.50000000  0.37667700  0.10349517  1
  C  C25  1  0.50000000  0.37729785  0.60481940  1
  C  C26  1  0.50000000  0.37669031  0.48013240  1
  C  C27  1  0.50000000  0.37708595  0.97832270  1
  C  C28  1  0.50000000  0.37681717  0.22907865  1
  C  C29  1  0.50000000  0.37734921  0.72927343  1
  C  C30  1  0.50000000  0.37676820  0.35459482  1
  C  C31  1  0.50000000  0.37730159  0.85373650  1
  C  C32  1  0.50000000  0.31618160  0.01919189  1
  C  C33  1  0.50000000  0.31586421  0.52164957  1
  C  C34  1  0.50000000  0.31622475  0.39548342  1
  C  C35  1  0.50000000  0.31553165  0.89558300  1
  C  C36  1  0.50000000  0.31625275  0.14468394  1
  C  C37  1  0.50000000  0.31567131  0.64616071  1
  C  C38  1  0.50000000  0.31634103  0.27008093  1
  C  C39  1  0.50000000  0.31576630  0.77091265  1
  C  C40  1  0.50000000  0.34565540  0.04045610  1
  C  C41  1  0.50000000  0.34648745  0.54260439  1
  C  C42  1  0.50000000  0.34583639  0.41706987  1
  C  C43  1  0.50000000  0.34633786  0.91594710  1
  C  C44  1  0.50000000  0.34597488  0.16614609  1
  C  C45  1  0.50000000  0.34642901  0.66686428  1
  C  C46  1  0.50000000  0.34604127  0.29161572  1
  C  C47  1  0.50000000  0.34645563  0.79150446  1
  C  C48  1  0.50000000  0.40750026  0.08268466  1
  C  C49  1  0.50000000  0.40787013  0.58404881  1
  C  C50  1  0.50000000  0.40747007  0.45949716  1
  C  C51  1  0.50000000  0.40784255  0.95742098  1
  C  C52  1  0.50000000  0.40760362  0.20825576  1
  C  C53  1  0.50000000  0.40806501  0.70854058  1
  C  C54  1  0.50000000  0.40759382  0.33380029  1
  C  C55  1  0.50000000  0.40804982  0.83295768  1
  C  C56  1  0.50000000  0.43713353  0.10421648  1
  C  C57  1  0.50000000  0.43875104  0.60478060  1
  C  C58  1  0.50000000  0.43707773  0.48078476  1
  C  C59  1  0.50000000  0.43826269  0.97845831  1
  C  C60  1  0.50000000  0.43732381  0.22983220  1
  C  C61  1  0.50000000  0.43877376  0.72922481  1
  C  C62  1  0.50000000  0.43723362  0.35543096  1
  C  C63  1  0.50000000  0.43875282  0.85359035  1
  C  C64  1  0.50000000  0.37670285  0.01976057  1
  C  C65  1  0.50000000  0.37706674  0.52157830  1
  C  C66  1  0.50000000  0.37670381  0.39638644  1
  C  C67  1  0.50000000  0.37729509  0.89512301  1
  C  C68  1  0.50000000  0.37674707  0.14528086  1
  C  C69  1  0.50000000  0.37730703  0.64620332  1
  C  C70  1  0.50000000  0.37683263  0.27082230  1
  C  C71  1  0.50000000  0.37733963  0.77066016  1
  C  C72  1  0.50000000  0.40749029  0.04038935  1
  C  C73  1  0.50000000  0.40781263  0.54247669  1
  C  C74  1  0.50000000  0.40751251  0.41719208  1
  C  C75  1  0.50000000  0.40789886  0.91585165  1
  C  C76  1  0.50000000  0.40756127  0.16607352  1
  C  C77  1  0.50000000  0.40805275  0.66695546  1
  C  C78  1  0.50000000  0.40762545  0.29164850  1
  C  C79  1  0.50000000  0.40806542  0.79137006  1
  C  C80  1  0.50000000  0.46942731  0.58417560  1
  C  C81  1  0.50000000  0.46977351  0.95744050  1
  C  C82  1  0.50000000  0.46957704  0.70854171  1
  C  C83  1  0.50000000  0.46956865  0.83274529  1
  C  C84  1  0.50000000  0.50021857  0.60501498  1
  C  C85  1  0.50000000  0.50017513  0.97658258  1
  C  C86  1  0.50000000  0.50038411  0.72919650  1
  C  C87  1  0.50000000  0.50032425  0.85326566  1
  C  C88  1  0.50000000  0.43710613  0.01906704  1
  C  C89  1  0.50000000  0.43823051  0.52140361  1
  C  C90  1  0.50000000  0.43715770  0.39567606  1
  C  C91  1  0.50000000  0.43878239  0.89509506  1
  C  C92  1  0.50000000  0.43721086  0.14444840  1
  C  C93  1  0.50000000  0.43873573  0.64629432  1
  C  C94  1  0.50000000  0.43732432  0.27005630  1
  C  C95  1  0.50000000  0.43877778  0.77068675  1
  C  C96  1  0.50000000  0.46973138  0.54242032  1
  C  C97  1  0.50000000  0.46946879  0.91568178  1
  C  C98  1  0.50000000  0.46954640  0.66713952  1
  C  C99  1  0.50000000  0.46959061  0.79135225  1
  C  C100  1  0.50000000  0.53089924  0.58472475  1
  C  C101  1  0.50000000  0.53095246  0.95675663  1
  C  C102  1  0.50000000  0.53112567  0.70861900  1
  C  C103  1  0.50000000  0.53112046  0.83267471  1
  C  C104  1  0.50000000  0.56174362  0.60516986  1
  C  C105  1  0.50000000  0.56127123  0.97683950  1
  C  C106  1  0.50000000  0.56203549  0.72923687  1
  C  C107  1  0.50000000  0.56194715  0.85325364  1
  C  C108  1  0.50000000  0.50011268  0.52320076  1
  C  C109  1  0.50000000  0.50026905  0.89482139  1
  C  C110  1  0.50000000  0.50027954  0.64657925  1
  C  C111  1  0.50000000  0.50039472  0.77070036  1
  C  C112  1  0.50000000  0.53090047  0.54301451  1
  C  C113  1  0.50000000  0.53097261  0.91506730  1
  C  C114  1  0.50000000  0.53106614  0.66718004  1
  C  C115  1  0.50000000  0.53115359  0.79124433  1
  C  C116  1  0.50000000  0.59232688  0.58439681  1
  C  C117  1  0.50000000  0.59206779  0.95728277  1
  C  C118  1  0.50000000  0.59283509  0.70862692  1
  C  C119  1  0.50000000  0.59282993  0.83283395  1
  C  C120  1  0.50000000  0.62311373  0.60465685  1
  C  C121  1  0.50000000  0.62237875  0.97752649  1
  C  C122  1  0.50000000  0.62356739  0.72919671  1
  C  C123  1  0.50000000  0.62340102  0.85363992  1
  C  C124  1  0.50000000  0.56120137  0.52289566  1
  C  C125  1  0.50000000  0.56183166  0.89464011  1
  C  C126  1  0.50000000  0.56187536  0.64657591  1
  C  C127  1  0.50000000  0.56205363  0.77062333  1
  C  C128  1  0.50000000  0.59199183  0.54247836  1
  C  C129  1  0.50000000  0.59243019  0.91538951  1
  C  C130  1  0.50000000  0.59275536  0.66701667  1
  C  C131  1  0.50000000  0.59286171  0.79123249  1
  C  C132  1  0.50000000  0.65374945  0.58349846  1
  C  C133  1  0.50000000  0.65320166  0.95817192  1
  C  C134  1  0.50000000  0.65445112  0.70827979  1
  C  C135  1  0.50000000  0.65445737  0.83320013  1
  C  C136  1  0.50000000  0.68488510  0.60340293  1
  C  C137  1  0.50000000  0.68364882  0.97902442  1
  C  C138  1  0.50000000  0.68517996  0.72887077  1
  C  C139  1  0.50000000  0.68510785  0.85416082  1
  C  C140  1  0.50000000  0.62231344  0.52225264  1
  C  C141  1  0.50000000  0.62323814  0.89517560  1
  C  C142  1  0.50000000  0.62330670  0.64620092  1
  C  C143  1  0.50000000  0.62359025  0.77067441  1
  C  C144  1  0.50000000  0.65311019  0.54168678  1
  C  C145  1  0.50000000  0.65387971  0.91634710  1
  C  C146  1  0.50000000  0.65436750  0.66664214  1
  C  C147  1  0.50000000  0.65449501  0.79156477  1
  C  C148  1  0.50000000  0.71438544  0.58132611  1
  C  C149  1  0.50000000  0.71372030  0.95931401  1
  C  C150  1  0.50000000  0.71498482  0.70720369  1
  C  C151  1  0.50000000  0.71496265  0.83269628  1
  C  C152  1  0.50000000  0.68359823  0.52094745  1
  C  C153  1  0.50000000  0.68502804  0.89645889  1
  C  C154  1  0.50000000  0.68499877  0.64568105  1
  C  C155  1  0.50000000  0.68520745  0.77093215  1
  C  C156  1  0.50000000  0.71366740  0.54065876  1
  C  C157  1  0.50000000  0.71449155  0.91863696  1
  C  C158  1  0.50000000  0.71488183  0.66709701  1
  C  C159  1  0.50000000  0.71502530  0.79259234  1
  H  H160  1  0.50000000  0.26149095  0.59760358  1
  H  H161  1  0.50000000  0.26182923  0.97315061  1
  H  H162  1  0.50000000  0.26181720  0.72256919  1
  H  H163  1  0.50000000  0.26174281  0.84730684  1
  H  H164  1  0.50000000  0.26190044  0.52676111  1
  H  H165  1  0.50000000  0.26151791  0.90215989  1
  H  H166  1  0.50000000  0.26172444  0.65280970  1
  H  H167  1  0.50000000  0.26179101  0.77736979  1
  H  H168  1  0.50000000  0.73860934  0.59575777  1
  H  H169  1  0.50000000  0.73717108  0.97554823  1
  H  H170  1  0.50000000  0.73897465  0.72212721  1
  H  H171  1  0.50000000  0.73888951  0.84778403  1
  H  H172  1  0.50000000  0.73713950  0.52448075  1
  H  H173  1  0.50000000  0.73878630  0.90438224  1
  H  H174  1  0.50000000  0.73878392  0.65196032  1
  H  H175  1  0.50000000  0.73904899  0.77774481  1
  H  H176  1  0.50000000  0.29208173  0.08975046  1
  H  H177  1  0.50000000  0.29200532  0.46621002  1
  H  H178  1  0.50000000  0.29227266  0.21513025  1
  H  H179  1  0.50000000  0.29227255  0.34036821  1
  H  H180  1  0.50000000  0.29210036  0.03399143  1
  H  H181  1  0.50000000  0.29219415  0.41036060  1
  H  H182  1  0.50000000  0.29221005  0.15952475  1
  H  H183  1  0.50000000  0.29232836  0.28492061  1
  H  H184  1  0.50000000  0.46114443  0.08933196  1
  H  H185  1  0.50000000  0.46051346  0.46491015  1
  H  H186  1  0.50000000  0.46136082  0.21501236  1
  H  H187  1  0.50000000  0.46129088  0.34068871  1
  H  H188  1  0.50000000  0.50120768  0.00826237  1
  H  H189  1  0.50000000  0.46059366  0.03479233  1
  H  H190  1  0.50000000  0.46117235  0.41054406  1
  H  H191  1  0.50000000  0.46124477  0.15924578  1
  H  H192  1  0.50000000  0.46135150  0.28487891  1
  H  H193  1  0.50000000  0.56113974  0.00861670  1
  H  H194  1  0.50000000  0.50106764  0.49149997  1
  H  H195  1  0.50000000  0.62199262  0.00930909  1
  H  H196  1  0.50000000  0.56107127  0.49108904  1
  H  H197  1  0.50000000  0.68293507  0.01081895  1
  H  H198  1  0.50000000  0.62189671  0.49045961  1
  H  H199  1  0.50000000  0.68290976  0.48918983  1
