# generated using pymatgen
data_H21C80
_symmetry_space_group_name_H-M   'P 1'
_cell_length_a   20.00000000
_cell_length_b   40.19450000
_cell_length_c   34.67255294
_cell_angle_alpha   90.00000000
_cell_angle_beta   90.00000000
_cell_angle_gamma   90.00000000
_symmetry_Int_Tables_number   1
_chemical_formula_structural   H21C80
_chemical_formula_sum   'H42 C160'
_cell_volume   27872.91858224
_cell_formula_units_Z   2
loop_
 _symmetry_equiv_pos_site_id
 _symmetry_equiv_pos_as_xyz
  1  'x, y, z'
loop_
 _atom_site_type_symbol
 _atom_site_label
 _atom_site_symmetry_multiplicity
 _atom_site_fract_x
 _atom_site_fract_y
 _atom_site_fract_z
 _atom_site_occupancy
  C  C0  1  0.50000000  0.28111997  0.07913976  1
  C  C1  1  0.50000000  0.28772482  0.58375543  1
  C  C2  1  0.50000000  0.28337025  0.46030952  1
  C  C3  1  0.50000000  0.28701745  0.95550249  1
  C  C4  1  0.50000000  0.27740397  0.20600754  1
  C  C5  1  0.50000000  0.28811698  0.70753368  1
  C  C6  1  0.50000000  0.27813963  0.33363503  1
  C  C7  1  0.50000000  0.28821046  0.83208534  1
  C  C8  1  0.50000000  0.30996499  0.10283045  1
  C  C9  1  0.50000000  0.31815902  0.60447745  1
  C  C10  1  0.50000000  0.31439924  0.48032425  1
  C  C11  1  0.50000000  0.31653968  0.97795085  1
  C  C12  1  0.50000000  0.30683144  0.22896783  1
  C  C13  1  0.50000000  0.31801745  0.72903283  1
  C  C14  1  0.50000000  0.30843750  0.35504994  1
  C  C15  1  0.50000000  0.31815915  0.85357025  1
  C  C16  1  0.50000000  0.28330427  0.03946575  1
  C  C17  1  0.50000000  0.28706097  0.54426798  1
  C  C18  1  0.50000000  0.28113413  0.42063480  1
  C  C19  1  0.50000000  0.28772533  0.91601479  1
  C  C20  1  0.50000000  0.27816286  0.16608406  1
  C  C21  1  0.50000000  0.28815669  0.66774489  1
  C  C22  1  0.50000000  0.27735887  0.29370730  1
  C  C23  1  0.50000000  0.28814241  0.79230069  1
  C  C24  1  0.50000000  0.34151933  0.08339651  1
  C  C25  1  0.50000000  0.34846732  0.58337626  1
  C  C26  1  0.50000000  0.34410438  0.45816488  1
  C  C27  1  0.50000000  0.34817921  0.95839767  1
  C  C28  1  0.50000000  0.33776642  0.20842531  1
  C  C29  1  0.50000000  0.34865019  0.70839971  1
  C  C30  1  0.50000000  0.33846208  0.33284373  1
  C  C31  1  0.50000000  0.34875395  0.83292397  1
  C  C32  1  0.50000000  0.37085005  0.10633454  1
  C  C33  1  0.50000000  0.37937806  0.60460562  1
  C  C34  1  0.50000000  0.37607791  0.47774552  1
  C  C35  1  0.50000000  0.37861025  0.98026860  1
  C  C36  1  0.50000000  0.36840523  0.22930430  1
  C  C37  1  0.50000000  0.37939800  0.72925354  1
  C  C38  1  0.50000000  0.36967468  0.35240055  1
  C  C39  1  0.50000000  0.37943500  0.85385031  1
  C  C40  1  0.50000000  0.31432430  0.01943418  1
  C  C41  1  0.50000000  0.31657678  0.52181987  1
  C  C42  1  0.50000000  0.30996111  0.39690557  1
  C  C43  1  0.50000000  0.31819221  0.89534183  1
  C  C44  1  0.50000000  0.30845792  0.14467236  1
  C  C45  1  0.50000000  0.31809849  0.64624917  1
  C  C46  1  0.50000000  0.30679343  0.27077197  1
  C  C47  1  0.50000000  0.31803232  0.77078720  1
  C  C48  1  0.50000000  0.34405232  0.04159574  1
  C  C49  1  0.50000000  0.34818972  0.54142343  1
  C  C50  1  0.50000000  0.34152678  0.41634581  1
  C  C51  1  0.50000000  0.34847866  0.91647505  1
  C  C52  1  0.50000000  0.33848892  0.16687625  1
  C  C53  1  0.50000000  0.34868883  0.66691529  1
  C  C54  1  0.50000000  0.33773002  0.29127526  1
  C  C55  1  0.50000000  0.34866992  0.79141379  1
  C  C56  1  0.50000000  0.40157436  0.08694451  1
  C  C57  1  0.50000000  0.40986799  0.58401255  1
  C  C58  1  0.50000000  0.40378779  0.45202162  1
  C  C59  1  0.50000000  0.41016990  0.95802081  1
  C  C60  1  0.50000000  0.39885686  0.20861274  1
  C  C61  1  0.50000000  0.40998912  0.70853151  1
  C  C62  1  0.50000000  0.39949632  0.33049085  1
  C  C63  1  0.50000000  0.40999219  0.83273002  1
  C  C64  1  0.50000000  0.44059421  0.60546716  1
  C  C65  1  0.50000000  0.44173860  0.97440198  1
  C  C66  1  0.50000000  0.44066412  0.72928767  1
  C  C67  1  0.50000000  0.44063066  0.85304360  1
  C  C68  1  0.50000000  0.37601997  0.02203242  1
  C  C69  1  0.50000000  0.37862449  0.51954437  1
  C  C70  1  0.50000000  0.37086278  0.39339386  1
  C  C71  1  0.50000000  0.37940099  0.89529680  1
  C  C72  1  0.50000000  0.36970592  0.14733680  1
  C  C73  1  0.50000000  0.37938844  0.64605102  1
  C  C74  1  0.50000000  0.36838651  0.27041723  1
  C  C75  1  0.50000000  0.37940655  0.77054468  1
  C  C76  1  0.50000000  0.40372920  0.04773318  1
  C  C77  1  0.50000000  0.41014128  0.54186555  1
  C  C78  1  0.50000000  0.40158807  0.41280531  1
  C  C79  1  0.50000000  0.40990166  0.91587481  1
  C  C80  1  0.50000000  0.39954635  0.16924586  1
  C  C81  1  0.50000000  0.40996062  0.66709247  1
  C  C82  1  0.50000000  0.39883289  0.29112275  1
  C  C83  1  0.50000000  0.41000663  0.79127313  1
  C  C84  1  0.50000000  0.47179107  0.58640006  1
  C  C85  1  0.50000000  0.47220876  0.95442953  1
  C  C86  1  0.50000000  0.47147360  0.70881711  1
  C  C87  1  0.50000000  0.47147246  0.83222539  1
  C  C88  1  0.50000000  0.50253511  0.60658598  1
  C  C89  1  0.50000000  0.50227585  0.97485954  1
  C  C90  1  0.50000000  0.50231321  0.72933109  1
  C  C91  1  0.50000000  0.50245931  0.85220520  1
  C  C92  1  0.50000000  0.44169538  0.52548007  1
  C  C93  1  0.50000000  0.44061921  0.89439712  1
  C  C94  1  0.50000000  0.44060648  0.64680763  1
  C  C95  1  0.50000000  0.44068093  0.77055438  1
  C  C96  1  0.50000000  0.47217638  0.54543254  1
  C  C97  1  0.50000000  0.47182396  0.91346544  1
  C  C98  1  0.50000000  0.47144209  0.66764860  1
  C  C99  1  0.50000000  0.47148574  0.79105493  1
  C  C100  1  0.50000000  0.53305731  0.58593734  1
  C  C101  1  0.50000000  0.53308746  0.95557620  1
  C  C102  1  0.50000000  0.53316182  0.70905259  1
  C  C103  1  0.50000000  0.53323630  0.83190868  1
  C  C104  1  0.50000000  0.56387739  0.60613218  1
  C  C105  1  0.50000000  0.56347265  0.97562937  1
  C  C106  1  0.50000000  0.56407255  0.72939611  1
  C  C107  1  0.50000000  0.56398576  0.85253033  1
  C  C108  1  0.50000000  0.50224277  0.52502035  1
  C  C109  1  0.50000000  0.50257413  0.89329145  1
  C  C110  1  0.50000000  0.50242710  0.64767536  1
  C  C111  1  0.50000000  0.50231944  0.77054022  1
  C  C112  1  0.50000000  0.53304595  0.54430340  1
  C  C113  1  0.50000000  0.53310168  0.91393826  1
  C  C114  1  0.50000000  0.53320530  0.66795990  1
  C  C115  1  0.50000000  0.53317299  0.79081308  1
  C  C116  1  0.50000000  0.59447338  0.58541767  1
  C  C117  1  0.50000000  0.59423727  0.95616737  1
  C  C118  1  0.50000000  0.59484190  0.70889502  1
  C  C119  1  0.50000000  0.59485119  0.83227714  1
  C  C120  1  0.50000000  0.62521856  0.60557656  1
  C  C121  1  0.50000000  0.62468417  0.97615370  1
  C  C122  1  0.50000000  0.62554045  0.72931841  1
  C  C123  1  0.50000000  0.62541030  0.85295055  1
  C  C124  1  0.50000000  0.56342146  0.52423215  1
  C  C125  1  0.50000000  0.56392478  0.89372624  1
  C  C126  1  0.50000000  0.56394163  0.64732497  1
  C  C127  1  0.50000000  0.56407812  0.77045697  1
  C  C128  1  0.50000000  0.59418687  0.54368092  1
  C  C129  1  0.50000000  0.59452988  0.91442789  1
  C  C130  1  0.50000000  0.59480871  0.66756549  1
  C  C131  1  0.50000000  0.59485663  0.79094825  1
  C  C132  1  0.50000000  0.65592309  0.58465800  1
  C  C133  1  0.50000000  0.65543038  0.95672566  1
  C  C134  1  0.50000000  0.65640941  0.70854699  1
  C  C135  1  0.50000000  0.65643049  0.83260206  1
  C  C136  1  0.50000000  0.68699731  0.60454028  1
  C  C137  1  0.50000000  0.68602116  0.97719533  1
  C  C138  1  0.50000000  0.68713027  0.72899730  1
  C  C139  1  0.50000000  0.68712566  0.85327802  1
  C  C140  1  0.50000000  0.62462730  0.52368067  1
  C  C141  1  0.50000000  0.62527422  0.89425365  1
  C  C142  1  0.50000000  0.62535458  0.64687796  1
  C  C143  1  0.50000000  0.62554774  0.77051281  1
  C  C144  1  0.50000000  0.65538356  0.54308595  1
  C  C145  1  0.50000000  0.65598416  0.91515294  1
  C  C146  1  0.50000000  0.65637494  0.66721248  1
  C  C147  1  0.50000000  0.65643265  0.79126255  1
  C  C148  1  0.50000000  0.71660524  0.58281128  1
  C  C149  1  0.50000000  0.71603070  0.95747846  1
  C  C150  1  0.50000000  0.71699744  0.70761100  1
  C  C151  1  0.50000000  0.71699863  0.83199311  1
  C  C152  1  0.50000000  0.68599042  0.52263546  1
  C  C153  1  0.50000000  0.68706515  0.89526956  1
  C  C154  1  0.50000000  0.68705137  0.64652175  1
  C  C155  1  0.50000000  0.68714143  0.77078303  1
  C  C156  1  0.50000000  0.71599744  0.54236843  1
  C  C157  1  0.50000000  0.71665369  0.91703557  1
  C  C158  1  0.50000000  0.71693792  0.66776500  1
  C  C159  1  0.50000000  0.71702367  0.79214292  1
  H  H160  1  0.50000000  0.25635618  0.09224537  1
  H  H161  1  0.50000000  0.26404144  0.59912694  1
  H  H162  1  0.50000000  0.26012853  0.47666675  1
  H  H163  1  0.50000000  0.26275830  0.96970506  1
  H  H164  1  0.50000000  0.25301833  0.22007307  1
  H  H165  1  0.50000000  0.26417043  0.72246485  1
  H  H166  1  0.50000000  0.25433509  0.34892840  1
  H  H167  1  0.50000000  0.26423849  0.84690254  1
  H  H168  1  0.50000000  0.26003251  0.02317536  1
  H  H169  1  0.50000000  0.26280357  0.53009631  1
  H  H170  1  0.50000000  0.25635039  0.40756534  1
  H  H171  1  0.50000000  0.26407902  0.90055190  1
  H  H172  1  0.50000000  0.25433046  0.15084247  1
  H  H173  1  0.50000000  0.26418653  0.65291493  1
  H  H174  1  0.50000000  0.25298788  0.27959836  1
  H  H175  1  0.50000000  0.26419117  0.77737932  1
  H  H176  1  0.50000000  0.74074801  0.59737763  1
  H  H177  1  0.50000000  0.73950052  0.97355695  1
  H  H178  1  0.50000000  0.74097272  0.72249495  1
  H  H179  1  0.50000000  0.74095000  0.84695777  1
  H  H180  1  0.50000000  0.73947099  0.52629569  1
  H  H181  1  0.50000000  0.74081554  0.90252187  1
  H  H182  1  0.50000000  0.74084855  0.65271859  1
  H  H183  1  0.50000000  0.74099219  0.77723532  1
  H  H184  1  0.50000000  0.42495367  0.10293112  1
  H  H185  1  0.50000000  0.42908835  0.46166436  1
  H  H186  1  0.50000000  0.42253548  0.22395201  1
  H  H187  1  0.50000000  0.42372129  0.34470231  1
  H  H188  1  0.50000000  0.44599061  0.00487733  1
  H  H189  1  0.50000000  0.42898681  0.03798382  1
  H  H190  1  0.50000000  0.42496668  0.39681964  1
  H  H191  1  0.50000000  0.42379460  0.15506939  1
  H  H192  1  0.50000000  0.42252737  0.27580601  1
  H  H193  1  0.50000000  0.50194248  0.00651075  1
  H  H194  1  0.50000000  0.44580035  0.49499489  1
  H  H195  1  0.50000000  0.56310887  0.00726531  1
  H  H196  1  0.50000000  0.50187977  0.49336056  1
  H  H197  1  0.50000000  0.62446054  0.00778085  1
  H  H198  1  0.50000000  0.56301511  0.49260095  1
  H  H199  1  0.50000000  0.68554373  0.00879002  1
  H  H200  1  0.50000000  0.62439074  0.49205942  1
  H  H201  1  0.50000000  0.68554591  0.49103806  1
