# generated using pymatgen
data_H21C80
_symmetry_space_group_name_H-M   'P 1'
_cell_length_a   20.00000000
_cell_length_b   40.19450000
_cell_length_c   34.96719511
_cell_angle_alpha   90.00000000
_cell_angle_beta   90.00000000
_cell_angle_gamma   90.00000000
_symmetry_Int_Tables_number   1
_chemical_formula_structural   H21C80
_chemical_formula_sum   'H42 C160'
_cell_volume   28109.77847546
_cell_formula_units_Z   2
loop_
 _symmetry_equiv_pos_site_id
 _symmetry_equiv_pos_as_xyz
  1  'x, y, z'
loop_
 _atom_site_type_symbol
 _atom_site_label
 _atom_site_symmetry_multiplicity
 _atom_site_fract_x
 _atom_site_fract_y
 _atom_site_fract_z
 _atom_site_occupancy
  C  C0  1  0.50000000  0.28491330  0.58643944  1
  C  C1  1  0.50000000  0.28479577  0.95358477  1
  C  C2  1  0.50000000  0.28595041  0.70893994  1
  C  C3  1  0.50000000  0.28566467  0.83029413  1
  C  C4  1  0.50000000  0.31474287  0.60747386  1
  C  C5  1  0.50000000  0.31474826  0.97315543  1
  C  C6  1  0.50000000  0.31611013  0.72941639  1
  C  C7  1  0.50000000  0.31544177  0.85128387  1
  C  C8  1  0.50000000  0.28476562  0.54641184  1
  C  C9  1  0.50000000  0.28491151  0.91354855  1
  C  C10  1  0.50000000  0.28570167  0.66966103  1
  C  C11  1  0.50000000  0.28592645  0.79099814  1
  C  C12  1  0.50000000  0.34560998  0.58772427  1
  C  C13  1  0.50000000  0.34508480  0.95258753  1
  C  C14  1  0.50000000  0.34677962  0.70909980  1
  C  C15  1  0.50000000  0.34656516  0.83175739  1
  C  C16  1  0.50000000  0.37721032  0.60650121  1
  C  C17  1  0.50000000  0.37536082  0.97225895  1
  C  C18  1  0.50000000  0.37768732  0.72947301  1
  C  C19  1  0.50000000  0.37746618  0.85243005  1
  C  C20  1  0.50000000  0.31467555  0.52675598  1
  C  C21  1  0.50000000  0.31474064  0.89248066  1
  C  C22  1  0.50000000  0.31546447  0.64865828  1
  C  C23  1  0.50000000  0.31610932  0.77056166  1
  C  C24  1  0.50000000  0.34503493  0.54734566  1
  C  C25  1  0.50000000  0.34561619  0.91221387  1
  C  C26  1  0.50000000  0.34658240  0.66819410  1
  C  C27  1  0.50000000  0.34678141  0.79085876  1
  C  C28  1  0.50000000  0.40966240  0.08482737  1
  C  C29  1  0.50000000  0.40770915  0.58509749  1
  C  C30  1  0.50000000  0.40965412  0.45419159  1
  C  C31  1  0.50000000  0.40705556  0.95636106  1
  C  C32  1  0.50000000  0.40867022  0.20769455  1
  C  C33  1  0.50000000  0.40821867  0.70882087  1
  C  C34  1  0.50000000  0.40876598  0.33156606  1
  C  C35  1  0.50000000  0.40816250  0.83238660  1
  C  C36  1  0.50000000  0.43926366  0.10596198  1
  C  C37  1  0.50000000  0.43873748  0.60503888  1
  C  C38  1  0.50000000  0.43831962  0.47867642  1
  C  C39  1  0.50000000  0.43795188  0.97938163  1
  C  C40  1  0.50000000  0.43858370  0.22941662  1
  C  C41  1  0.50000000  0.43884136  0.72938073  1
  C  C42  1  0.50000000  0.43891145  0.35289422  1
  C  C43  1  0.50000000  0.43876209  0.85342229  1
  C  C44  1  0.50000000  0.37531215  0.52767652  1
  C  C45  1  0.50000000  0.37721049  0.89342538  1
  C  C46  1  0.50000000  0.37747929  0.64750471  1
  C  C47  1  0.50000000  0.37768768  0.77047092  1
  C  C48  1  0.50000000  0.40963944  0.04575661  1
  C  C49  1  0.50000000  0.40702974  0.54353567  1
  C  C50  1  0.50000000  0.40966638  0.41511035  1
  C  C51  1  0.50000000  0.40771749  0.91480633  1
  C  C52  1  0.50000000  0.40876803  0.16834750  1
  C  C53  1  0.50000000  0.40817325  0.66754318  1
  C  C54  1  0.50000000  0.40866103  0.29223060  1
  C  C55  1  0.50000000  0.40822159  0.79111734  1
  C  C56  1  0.50000000  0.46930310  0.08415395  1
  C  C57  1  0.50000000  0.46919940  0.58361096  1
  C  C58  1  0.50000000  0.46931481  0.45784680  1
  C  C59  1  0.50000000  0.46918495  0.95867297  1
  C  C60  1  0.50000000  0.46941886  0.20896619  1
  C  C61  1  0.50000000  0.46940114  0.70861789  1
  C  C62  1  0.50000000  0.46939039  0.33208627  1
  C  C63  1  0.50000000  0.46931302  0.83257651  1
  C  C64  1  0.50000000  0.49936743  0.10590444  1
  C  C65  1  0.50000000  0.49970865  0.60511371  1
  C  C66  1  0.50000000  0.50026247  0.47875329  1
  C  C67  1  0.50000000  0.50039473  0.97927648  1
  C  C68  1  0.50000000  0.50026930  0.22940257  1
  C  C69  1  0.50000000  0.49994463  0.72934049  1
  C  C70  1  0.50000000  0.49983744  0.35293991  1
  C  C71  1  0.50000000  0.49984097  0.85327674  1
  C  C72  1  0.50000000  0.43829711  0.02123717  1
  C  C73  1  0.50000000  0.43793532  0.52052912  1
  C  C74  1  0.50000000  0.43927206  0.39397480  1
  C  C75  1  0.50000000  0.43874414  0.89486570  1
  C  C76  1  0.50000000  0.43891287  0.14703514  1
  C  C77  1  0.50000000  0.43876872  0.64648396  1
  C  C78  1  0.50000000  0.43857745  0.27050478  1
  C  C79  1  0.50000000  0.43884400  0.77055736  1
  C  C80  1  0.50000000  0.46929395  0.04207538  1
  C  C81  1  0.50000000  0.46914982  0.54124041  1
  C  C82  1  0.50000000  0.46931576  0.41577051  1
  C  C83  1  0.50000000  0.46920615  0.91629763  1
  C  C84  1  0.50000000  0.46938791  0.16784243  1
  C  C85  1  0.50000000  0.46932826  0.66729831  1
  C  C86  1  0.50000000  0.46941768  0.29096475  1
  C  C87  1  0.50000000  0.46940409  0.79128363  1
  C  C88  1  0.50000000  0.52892206  0.08471691  1
  C  C89  1  0.50000000  0.53061781  0.58533176  1
  C  C90  1  0.50000000  0.52898005  0.45428704  1
  C  C91  1  0.50000000  0.53113772  0.95609432  1
  C  C92  1  0.50000000  0.53016123  0.20760414  1
  C  C93  1  0.50000000  0.53056216  0.70878679  1
  C  C94  1  0.50000000  0.53000355  0.33164579  1
  C  C95  1  0.50000000  0.53046706  0.83220531  1
  C  C96  1  0.50000000  0.56127907  0.60672377  1
  C  C97  1  0.50000000  0.56272330  0.97200688  1
  C  C98  1  0.50000000  0.56129998  0.72943095  1
  C  C99  1  0.50000000  0.56128938  0.85222560  1
  C  C100  1  0.50000000  0.50024098  0.02116794  1
  C  C101  1  0.50000000  0.50039569  0.52064480  1
  C  C102  1  0.50000000  0.49938006  0.39402426  1
  C  C103  1  0.50000000  0.49970469  0.89477380  1
  C  C104  1  0.50000000  0.49982722  0.14698347  1
  C  C105  1  0.50000000  0.49984986  0.64660808  1
  C  C106  1  0.50000000  0.50026774  0.27052139  1
  C  C107  1  0.50000000  0.49994938  0.77055256  1
  C  C108  1  0.50000000  0.52895046  0.04563439  1
  C  C109  1  0.50000000  0.53117206  0.54381311  1
  C  C110  1  0.50000000  0.52893628  0.41520227  1
  C  C111  1  0.50000000  0.53060181  0.91457016  1
  C  C112  1  0.50000000  0.52999960  0.16825822  1
  C  C113  1  0.50000000  0.53047452  0.66768109  1
  C  C114  1  0.50000000  0.53017059  0.29229023  1
  C  C115  1  0.50000000  0.53056786  0.79109867  1
  C  C116  1  0.50000000  0.59268516  0.58794746  1
  C  C117  1  0.50000000  0.59301484  0.95244088  1
  C  C118  1  0.50000000  0.59216290  0.70921854  1
  C  C119  1  0.50000000  0.59220880  0.83170201  1
  C  C120  1  0.50000000  0.62341317  0.60764382  1
  C  C121  1  0.50000000  0.62283685  0.97311144  1
  C  C122  1  0.50000000  0.62294383  0.72953484  1
  C  C123  1  0.50000000  0.62313705  0.85155653  1
  C  C124  1  0.50000000  0.56274412  0.52789351  1
  C  C125  1  0.50000000  0.56126126  0.89317071  1
  C  C126  1  0.50000000  0.56130135  0.64766989  1
  C  C127  1  0.50000000  0.56130550  0.77045489  1
  C  C128  1  0.50000000  0.59304045  0.54743783  1
  C  C129  1  0.50000000  0.59266798  0.91193597  1
  C  C130  1  0.50000000  0.59221633  0.66819150  1
  C  C131  1  0.50000000  0.59216357  0.79067404  1
  C  C132  1  0.50000000  0.65400466  0.58671923  1
  C  C133  1  0.50000000  0.65365830  0.95433279  1
  C  C134  1  0.50000000  0.65398869  0.70920614  1
  C  C135  1  0.50000000  0.65410753  0.83153722  1
  C  C136  1  0.50000000  0.68510158  0.60625504  1
  C  C137  1  0.50000000  0.68407503  0.97491161  1
  C  C138  1  0.50000000  0.68477316  0.72933011  1
  C  C139  1  0.50000000  0.68484851  0.85207260  1
  C  C140  1  0.50000000  0.62285248  0.52673598  1
  C  C141  1  0.50000000  0.62339774  0.89225145  1
  C  C142  1  0.50000000  0.62314976  0.64833478  1
  C  C143  1  0.50000000  0.62294118  0.77036083  1
  C  C144  1  0.50000000  0.65366452  0.54555882  1
  C  C145  1  0.50000000  0.65399383  0.91317026  1
  C  C146  1  0.50000000  0.65412573  0.66835205  1
  C  C147  1  0.50000000  0.65398501  0.79068953  1
  C  C148  1  0.50000000  0.71464939  0.58462260  1
  C  C149  1  0.50000000  0.71409186  0.95542042  1
  C  C150  1  0.50000000  0.71467460  0.70826024  1
  C  C151  1  0.50000000  0.71471264  0.83109116  1
  C  C152  1  0.50000000  0.68409429  0.52502030  1
  C  C153  1  0.50000000  0.68509370  0.89362966  1
  C  C154  1  0.50000000  0.68486773  0.64781502  1
  C  C155  1  0.50000000  0.68477144  0.77057260  1
  C  C156  1  0.50000000  0.71412437  0.54448058  1
  C  C157  1  0.50000000  0.71462821  0.91528152  1
  C  C158  1  0.50000000  0.71471233  0.66881475  1
  C  C159  1  0.50000000  0.71467174  0.79163557  1
  H  H160  1  0.50000000  0.26100856  0.60131182  1
  H  H161  1  0.50000000  0.26116508  0.96922169  1
  H  H162  1  0.50000000  0.26206156  0.72377017  1
  H  H163  1  0.50000000  0.26178692  0.84521227  1
  H  H164  1  0.50000000  0.26107812  0.53096061  1
  H  H165  1  0.50000000  0.26100070  0.89871867  1
  H  H166  1  0.50000000  0.26175806  0.65490218  1
  H  H167  1  0.50000000  0.26212091  0.77596891  1
  H  H168  1  0.50000000  0.73881563  0.59894982  1
  H  H169  1  0.50000000  0.73765148  0.97121741  1
  H  H170  1  0.50000000  0.73862284  0.72302153  1
  H  H171  1  0.50000000  0.73860771  0.84601951  1
  H  H172  1  0.50000000  0.73765747  0.52859646  1
  H  H173  1  0.50000000  0.73883445  0.90102890  1
  H  H174  1  0.50000000  0.73864279  0.65398093  1
  H  H175  1  0.50000000  0.73859875  0.77680625  1
  H  H176  1  0.50000000  0.31532686  0.00448404  1
  H  H177  1  0.50000000  0.37122347  0.00230877  1
  H  H178  1  0.50000000  0.31519449  0.49538465  1
  H  H179  1  0.50000000  0.38546402  0.09906700  1
  H  H180  1  0.50000000  0.38457657  0.46431076  1
  H  H181  1  0.50000000  0.38461897  0.22227061  1
  H  H182  1  0.50000000  0.38482722  0.34637734  1
  H  H183  1  0.50000000  0.37105718  0.49765504  1
  H  H184  1  0.50000000  0.38450813  0.03578867  1
  H  H185  1  0.50000000  0.38549088  0.40082507  1
  H  H186  1  0.50000000  0.38485542  0.15350906  1
  H  H187  1  0.50000000  0.38461924  0.27760767  1
  H  H188  1  0.50000000  0.55310225  0.09896000  1
  H  H189  1  0.50000000  0.55414841  0.46420517  1
  H  H190  1  0.50000000  0.55427118  0.22208650  1
  H  H191  1  0.50000000  0.55393811  0.34647405  1
  H  H192  1  0.50000000  0.56681559  0.00202537  1
  H  H193  1  0.50000000  0.55412501  0.03574181  1
  H  H194  1  0.50000000  0.55307505  0.40087059  1
  H  H195  1  0.50000000  0.55392300  0.15340263  1
  H  H196  1  0.50000000  0.55426096  0.27773883  1
  H  H197  1  0.50000000  0.62197139  0.00446188  1
  H  H198  1  0.50000000  0.56683629  0.49788715  1
  H  H199  1  0.50000000  0.68326342  0.00626190  1
  H  H200  1  0.50000000  0.62198372  0.49535229  1
  H  H201  1  0.50000000  0.68325878  0.49369627  1
