# generated using pymatgen
data_H29C80
_symmetry_space_group_name_H-M   'P 1'
_cell_length_a   20.00000000
_cell_length_b   40.19450000
_cell_length_c   35.09164893
_cell_angle_alpha   90.00000000
_cell_angle_beta   90.00000000
_cell_angle_gamma   90.00000000
_symmetry_Int_Tables_number   1
_chemical_formula_structural   H29C80
_chemical_formula_sum   'H58 C160'
_cell_volume   28209.82565929
_cell_formula_units_Z   2
loop_
 _symmetry_equiv_pos_site_id
 _symmetry_equiv_pos_as_xyz
  1  'x, y, z'
loop_
 _atom_site_type_symbol
 _atom_site_label
 _atom_site_symmetry_multiplicity
 _atom_site_fract_x
 _atom_site_fract_y
 _atom_site_fract_z
 _atom_site_occupancy
  C  C0  1  0.50000000  0.27821367  0.07821160  1
  C  C1  1  0.50000000  0.28879634  0.58333530  1
  C  C2  1  0.50000000  0.28314947  0.46099763  1
  C  C3  1  0.50000000  0.28924365  0.95605208  1
  C  C4  1  0.50000000  0.27060657  0.20623292  1
  C  C5  1  0.50000000  0.28774056  0.70751678  1
  C  C6  1  0.50000000  0.27179345  0.33335292  1
  C  C7  1  0.50000000  0.28792991  0.83162202  1
  C  C8  1  0.50000000  0.30509601  0.10419522  1
  C  C9  1  0.50000000  0.31815791  0.60535702  1
  C  C10  1  0.50000000  0.31504493  0.47885164  1
  C  C11  1  0.50000000  0.31843337  0.97828860  1
  C  C12  1  0.50000000  0.29972739  0.22874258  1
  C  C13  1  0.50000000  0.31743152  0.72909576  1
  C  C14  1  0.50000000  0.30224366  0.35343499  1
  C  C15  1  0.50000000  0.31783799  0.85273310  1
  C  C16  1  0.50000000  0.28305189  0.03872050  1
  C  C17  1  0.50000000  0.28928663  0.54364317  1
  C  C18  1  0.50000000  0.27826969  0.42152346  1
  C  C19  1  0.50000000  0.28877602  0.91635563  1
  C  C20  1  0.50000000  0.27178439  0.16635739  1
  C  C21  1  0.50000000  0.28794200  0.66804582  1
  C  C22  1  0.50000000  0.27061583  0.29348008  1
  C  C23  1  0.50000000  0.28773333  0.79214291  1
  C  C24  1  0.50000000  0.33663584  0.08694671  1
  C  C25  1  0.50000000  0.34882999  0.58514371  1
  C  C26  1  0.50000000  0.34136720  0.45192521  1
  C  C27  1  0.50000000  0.34934934  0.95630620  1
  C  C28  1  0.50000000  0.33004099  0.20848792  1
  C  C29  1  0.50000000  0.34817301  0.70878682  1
  C  C30  1  0.50000000  0.33123326  0.33068808  1
  C  C31  1  0.50000000  0.34833346  0.83187741  1
  C  C32  1  0.50000000  0.37944367  0.60656924  1
  C  C33  1  0.50000000  0.38103163  0.97301652  1
  C  C34  1  0.50000000  0.37899908  0.72943036  1
  C  C35  1  0.50000000  0.37922813  0.85213038  1
  C  C36  1  0.50000000  0.31495483  0.02086330  1
  C  C37  1  0.50000000  0.31849171  0.52143160  1
  C  C38  1  0.50000000  0.30512816  0.39550445  1
  C  C39  1  0.50000000  0.31813867  0.89433268  1
  C  C40  1  0.50000000  0.30223096  0.14626819  1
  C  C41  1  0.50000000  0.31785254  0.64694443  1
  C  C42  1  0.50000000  0.29972804  0.27095968  1
  C  C43  1  0.50000000  0.31742944  0.77057413  1
  C  C44  1  0.50000000  0.34129247  0.04776752  1
  C  C45  1  0.50000000  0.34939219  0.54341796  1
  C  C46  1  0.50000000  0.33667809  0.41274391  1
  C  C47  1  0.50000000  0.34880372  0.91456257  1
  C  C48  1  0.50000000  0.33122659  0.16900611  1
  C  C49  1  0.50000000  0.34834898  0.66779823  1
  C  C50  1  0.50000000  0.33003787  0.29121035  1
  C  C51  1  0.50000000  0.34816582  0.79088723  1
  C  C52  1  0.50000000  0.41059286  0.58761472  1
  C  C53  1  0.50000000  0.41112918  0.95285752  1
  C  C54  1  0.50000000  0.40970847  0.70916741  1
  C  C55  1  0.50000000  0.40979794  0.83144597  1
  C  C56  1  0.50000000  0.44117709  0.60788119  1
  C  C57  1  0.50000000  0.44156494  0.97257182  1
  C  C58  1  0.50000000  0.44050143  0.72950418  1
  C  C59  1  0.50000000  0.44082640  0.85119651  1
  C  C60  1  0.50000000  0.38107203  0.52670663  1
  C  C61  1  0.50000000  0.37941346  0.89311773  1
  C  C62  1  0.50000000  0.37924973  0.64754759  1
  C  C63  1  0.50000000  0.37899287  0.77024870  1
  C  C64  1  0.50000000  0.41117766  0.54684376  1
  C  C65  1  0.50000000  0.41055309  0.91208100  1
  C  C66  1  0.50000000  0.40981998  0.66823216  1
  C  C67  1  0.50000000  0.40969899  0.79050847  1
  C  C68  1  0.50000000  0.47194395  0.58770091  1
  C  C69  1  0.50000000  0.47212514  0.95315511  1
  C  C70  1  0.50000000  0.47147185  0.70940163  1
  C  C71  1  0.50000000  0.47156387  0.83089988  1
  C  C72  1  0.50000000  0.50250684  0.60786469  1
  C  C73  1  0.50000000  0.50273488  0.97265465  1
  C  C74  1  0.50000000  0.50225158  0.72951887  1
  C  C75  1  0.50000000  0.50233585  0.85105865  1
  C  C76  1  0.50000000  0.44162374  0.52714301  1
  C  C77  1  0.50000000  0.44113311  0.89181124  1
  C  C78  1  0.50000000  0.44085743  0.64848787  1
  C  C79  1  0.50000000  0.44049414  0.77016702  1
  C  C80  1  0.50000000  0.47219222  0.54655550  1
  C  C81  1  0.50000000  0.47188787  0.91200300  1
  C  C82  1  0.50000000  0.47159618  0.66877835  1
  C  C83  1  0.50000000  0.47145804  0.79027232  1
  C  C84  1  0.50000000  0.53326930  0.58768639  1
  C  C85  1  0.50000000  0.53321099  0.95313132  1
  C  C86  1  0.50000000  0.53310244  0.70937786  1
  C  C87  1  0.50000000  0.53308405  0.83089270  1
  C  C88  1  0.50000000  0.56390024  0.60786029  1
  C  C89  1  0.50000000  0.56395360  0.97262317  1
  C  C90  1  0.50000000  0.56397550  0.72953302  1
  C  C91  1  0.50000000  0.56389341  0.85114955  1
  C  C92  1  0.50000000  0.50281362  0.52707110  1
  C  C93  1  0.50000000  0.50244382  0.89182867  1
  C  C94  1  0.50000000  0.50237903  0.64862993  1
  C  C95  1  0.50000000  0.50224218  0.77015753  1
  C  C96  1  0.50000000  0.53330924  0.54657405  1
  C  C97  1  0.50000000  0.53319053  0.91202063  1
  C  C98  1  0.50000000  0.53312319  0.66880117  1
  C  C99  1  0.50000000  0.53308359  0.79031213  1
  C  C100  1  0.50000000  0.59461071  0.58763601  1
  C  C101  1  0.50000000  0.59425321  0.95309650  1
  C  C102  1  0.50000000  0.59475884  0.70930452  1
  C  C103  1  0.50000000  0.59468558  0.83119312  1
  C  C104  1  0.50000000  0.62542419  0.60730162  1
  C  C105  1  0.50000000  0.62498835  0.97289026  1
  C  C106  1  0.50000000  0.62551961  0.72954049  1
  C  C107  1  0.50000000  0.62541209  0.85168617  1
  C  C108  1  0.50000000  0.56408163  0.52711919  1
  C  C109  1  0.50000000  0.56382382  0.89186023  1
  C  C110  1  0.50000000  0.56394530  0.64856526  1
  C  C111  1  0.50000000  0.56396508  0.77017031  1
  C  C112  1  0.50000000  0.59437764  0.54666881  1
  C  C113  1  0.50000000  0.59451142  0.91212098  1
  C  C114  1  0.50000000  0.59473101  0.66853412  1
  C  C115  1  0.50000000  0.59473542  0.79041783  1
  C  C116  1  0.50000000  0.65623346  0.58655740  1
  C  C117  1  0.50000000  0.65559332  0.95469148  1
  C  C118  1  0.50000000  0.65638538  0.70906091  1
  C  C119  1  0.50000000  0.65624524  0.83157446  1
  C  C120  1  0.50000000  0.68665741  0.10303397  1
  C  C121  1  0.50000000  0.68675932  0.60649189  1
  C  C122  1  0.50000000  0.68787619  0.48397796  1
  C  C123  1  0.50000000  0.68709322  0.97600865  1
  C  C124  1  0.50000000  0.68536599  0.23029344  1
  C  C125  1  0.50000000  0.68711355  0.72931558  1
  C  C126  1  0.50000000  0.68632790  0.35736938  1
  C  C127  1  0.50000000  0.68689607  0.85229765  1
  C  C128  1  0.50000000  0.62514412  0.52692595  1
  C  C129  1  0.50000000  0.62532582  0.89246697  1
  C  C130  1  0.50000000  0.62547628  0.64807222  1
  C  C131  1  0.50000000  0.62550252  0.77019248  1
  C  C132  1  0.50000000  0.65574424  0.54512593  1
  C  C133  1  0.50000000  0.65610784  0.91324787  1
  C  C134  1  0.50000000  0.65630455  0.66819129  1
  C  C135  1  0.50000000  0.65634987  0.79069805  1
  C  C136  1  0.50000000  0.71525245  0.07943955  1
  C  C137  1  0.50000000  0.71709519  0.58483807  1
  C  C138  1  0.50000000  0.71603063  0.46010203  1
  C  C139  1  0.50000000  0.71708926  0.95399918  1
  C  C140  1  0.50000000  0.71391689  0.20642775  1
  C  C141  1  0.50000000  0.71707876  0.70794163  1
  C  C142  1  0.50000000  0.71445327  0.33298192  1
  C  C143  1  0.50000000  0.71695643  0.83110464  1
  C  C144  1  0.50000000  0.68768963  0.01589781  1
  C  C145  1  0.50000000  0.68727272  0.52385636  1
  C  C146  1  0.50000000  0.68684748  0.39688566  1
  C  C147  1  0.50000000  0.68663488  0.89332201  1
  C  C148  1  0.50000000  0.68613001  0.14256398  1
  C  C149  1  0.50000000  0.68697329  0.64749741  1
  C  C150  1  0.50000000  0.68540996  0.26976353  1
  C  C151  1  0.50000000  0.68708485  0.77045687  1
  C  C152  1  0.50000000  0.71583933  0.03977005  1
  C  C153  1  0.50000000  0.71726667  0.54586674  1
  C  C154  1  0.50000000  0.71546007  0.42043926  1
  C  C155  1  0.50000000  0.71693428  0.91502290  1
  C  C156  1  0.50000000  0.71425873  0.16696862  1
  C  C157  1  0.50000000  0.71702480  0.66869740  1
  C  C158  1  0.50000000  0.71402339  0.29352922  1
  C  C159  1  0.50000000  0.71702639  0.79185642  1
  H  H160  1  0.50000000  0.25249995  0.08867296  1
  H  H161  1  0.50000000  0.26445183  0.59725260  1
  H  H162  1  0.50000000  0.26056661  0.47832150  1
  H  H163  1  0.50000000  0.26497957  0.97008897  1
  H  H164  1  0.50000000  0.24615700  0.22004757  1
  H  H165  1  0.50000000  0.26364804  0.72196258  1
  H  H166  1  0.50000000  0.24821111  0.34902851  1
  H  H167  1  0.50000000  0.26404616  0.84653976  1
  H  H168  1  0.50000000  0.26047522  0.02138563  1
  H  H169  1  0.50000000  0.26502443  0.52960543  1
  H  H170  1  0.50000000  0.25251619  0.41115268  1
  H  H171  1  0.50000000  0.26442971  0.90245047  1
  H  H172  1  0.50000000  0.24820710  0.15066904  1
  H  H173  1  0.50000000  0.26403495  0.65318322  1
  H  H174  1  0.50000000  0.24617140  0.27966684  1
  H  H175  1  0.50000000  0.26368131  0.77760289  1
  H  H176  1  0.50000000  0.73958300  0.09359122  1
  H  H177  1  0.50000000  0.74100855  0.59971428  1
  H  H178  1  0.50000000  0.74078455  0.47330263  1
  H  H179  1  0.50000000  0.74105845  0.96880817  1
  H  H180  1  0.50000000  0.73835853  0.22036957  1
  H  H181  1  0.50000000  0.74109642  0.72258155  1
  H  H182  1  0.50000000  0.73909391  0.34643955  1
  H  H183  1  0.50000000  0.74088887  0.84591521  1
  H  H184  1  0.50000000  0.74058833  0.02656181  1
  H  H185  1  0.50000000  0.74120221  0.53097914  1
  H  H186  1  0.50000000  0.73979295  0.40629280  1
  H  H187  1  0.50000000  0.74086968  0.90020914  1
  H  H188  1  0.50000000  0.73889309  0.15348496  1
  H  H189  1  0.50000000  0.74096130  0.65389198  1
  H  H190  1  0.50000000  0.73842237  0.27950653  1
  H  H191  1  0.50000000  0.74102670  0.77718249  1
  H  H192  1  0.50000000  0.35925901  0.10422975  1
  H  H193  1  0.50000000  0.36735094  0.45983335  1
  H  H194  1  0.50000000  0.35379424  0.22363172  1
  H  H195  1  0.50000000  0.35590507  0.34375333  1
  H  H196  1  0.50000000  0.38412524  0.00350208  1
  H  H197  1  0.50000000  0.36726489  0.03982116  1
  H  H198  1  0.50000000  0.35930878  0.39546903  1
  H  H199  1  0.50000000  0.35590309  0.15594631  1
  H  H200  1  0.50000000  0.35379353  0.27608526  1
  H  H201  1  0.50000000  0.44139124  0.00383149  1
  H  H202  1  0.50000000  0.38413301  0.49622497  1
  H  H203  1  0.50000000  0.50280449  0.00389549  1
  H  H204  1  0.50000000  0.44144373  0.49589139  1
  H  H205  1  0.50000000  0.56398298  0.00387477  1
  H  H206  1  0.50000000  0.50285032  0.49583776  1
  H  H207  1  0.50000000  0.62358132  0.00401943  1
  H  H208  1  0.50000000  0.56417052  0.49587156  1
  H  H209  1  0.50000000  0.66226516  0.08899669  1
  H  H210  1  0.50000000  0.66375514  0.46953063  1
  H  H211  1  0.50000000  0.66083809  0.21651199  1
  H  H212  1  0.50000000  0.66170420  0.34384920  1
  H  H213  1  0.50000000  0.62376074  0.49580439  1
  H  H214  1  0.50000000  0.66361457  0.03044564  1
  H  H215  1  0.50000000  0.66248488  0.41097830  1
  H  H216  1  0.50000000  0.66147132  0.15602594  1
  H  H217  1  0.50000000  0.66090185  0.28359337  1
