# generated using pymatgen
data_HC4
_symmetry_space_group_name_H-M   'P 1'
_cell_length_a   20.00000000
_cell_length_b   40.19450000
_cell_length_c   34.43235440
_cell_angle_alpha   90.00000000
_cell_angle_beta   90.00000000
_cell_angle_gamma   90.00000000
_symmetry_Int_Tables_number   1
_chemical_formula_structural   HC4
_chemical_formula_sum   'H40 C160'
_cell_volume   27679.82537509
_cell_formula_units_Z   40
loop_
 _symmetry_equiv_pos_site_id
 _symmetry_equiv_pos_as_xyz
  1  'x, y, z'
loop_
 _atom_site_type_symbol
 _atom_site_label
 _atom_site_symmetry_multiplicity
 _atom_site_fract_x
 _atom_site_fract_y
 _atom_site_fract_z
 _atom_site_occupancy
  C  C0  1  0.50000000  0.28526091  0.58195608  1
  C  C1  1  0.50000000  0.28571063  0.95855291  1
  C  C2  1  0.50000000  0.28514323  0.70756514  1
  C  C3  1  0.50000000  0.28510291  0.83232062  1
  C  C4  1  0.50000000  0.31482687  0.60390740  1
  C  C5  1  0.50000000  0.31579878  0.97838909  1
  C  C6  1  0.50000000  0.31510105  0.72895402  1
  C  C7  1  0.50000000  0.31497671  0.85377762  1
  C  C8  1  0.50000000  0.28572239  0.54130478  1
  C  C9  1  0.50000000  0.28526195  0.91789995  1
  C  C10  1  0.50000000  0.28509535  0.66752976  1
  C  C11  1  0.50000000  0.28515207  0.79228289  1
  C  C12  1  0.50000000  0.34587535  0.58392320  1
  C  C13  1  0.50000000  0.34609496  0.95753377  1
  C  C14  1  0.50000000  0.34578757  0.70833225  1
  C  C15  1  0.50000000  0.34572316  0.83313475  1
  C  C16  1  0.50000000  0.37673699  0.60464198  1
  C  C17  1  0.50000000  0.37695642  0.97712849  1
  C  C18  1  0.50000000  0.37674139  0.72921199  1
  C  C19  1  0.50000000  0.37678388  0.85373904  1
  C  C20  1  0.50000000  0.31582365  0.52149270  1
  C  C21  1  0.50000000  0.31483082  0.89595458  1
  C  C22  1  0.50000000  0.31497520  0.64608276  1
  C  C23  1  0.50000000  0.31510937  0.77090149  1
  C  C24  1  0.50000000  0.34611462  0.54236089  1
  C  C25  1  0.50000000  0.34587249  0.91596620  1
  C  C26  1  0.50000000  0.34571850  0.66674670  1
  C  C27  1  0.50000000  0.34579245  0.79154275  1
  C  C28  1  0.50000000  0.40749373  0.58397784  1
  C  C29  1  0.50000000  0.40719017  0.95781000  1
  C  C30  1  0.50000000  0.40748085  0.70854318  1
  C  C31  1  0.50000000  0.40743080  0.83310672  1
  C  C32  1  0.50000000  0.43924709  0.10461112  1
  C  C33  1  0.50000000  0.43821897  0.60465267  1
  C  C34  1  0.50000000  0.43964518  0.48072005  1
  C  C35  1  0.50000000  0.43873345  0.97888185  1
  C  C36  1  0.50000000  0.43922431  0.23002182  1
  C  C37  1  0.50000000  0.43824422  0.72923214  1
  C  C38  1  0.50000000  0.43927773  0.35538989  1
  C  C39  1  0.50000000  0.43825258  0.85390377  1
  C  C40  1  0.50000000  0.37698981  0.52279935  1
  C  C41  1  0.50000000  0.37673916  0.89526762  1
  C  C42  1  0.50000000  0.37678558  0.64616564  1
  C  C43  1  0.50000000  0.37674420  0.77067913  1
  C  C44  1  0.50000000  0.40721220  0.54213776  1
  C  C45  1  0.50000000  0.40748424  0.91596264  1
  C  C46  1  0.50000000  0.40743579  0.66680769  1
  C  C47  1  0.50000000  0.40747371  0.79136709  1
  C  C48  1  0.50000000  0.46916974  0.08283193  1
  C  C49  1  0.50000000  0.46928888  0.58377473  1
  C  C50  1  0.50000000  0.46928829  0.45908364  1
  C  C51  1  0.50000000  0.46932196  0.95755932  1
  C  C52  1  0.50000000  0.46920219  0.20821314  1
  C  C53  1  0.50000000  0.46922184  0.70837911  1
  C  C54  1  0.50000000  0.46923593  0.33360912  1
  C  C55  1  0.50000000  0.46921390  0.83302228  1
  C  C56  1  0.50000000  0.49997516  0.10366737  1
  C  C57  1  0.50000000  0.50001194  0.60453260  1
  C  C58  1  0.50000000  0.50001728  0.47983821  1
  C  C59  1  0.50000000  0.49998718  0.97855889  1
  C  C60  1  0.50000000  0.49999295  0.22908041  1
  C  C61  1  0.50000000  0.50000663  0.72911568  1
  C  C62  1  0.50000000  0.50001554  0.35448421  1
  C  C63  1  0.50000000  0.49999889  0.85373144  1
  C  C64  1  0.50000000  0.43961526  0.01925750  1
  C  C65  1  0.50000000  0.43876142  0.52108784  1
  C  C66  1  0.50000000  0.43928121  0.39538648  1
  C  C67  1  0.50000000  0.43820835  0.89529231  1
  C  C68  1  0.50000000  0.43923155  0.14461827  1
  C  C69  1  0.50000000  0.43826371  0.64603036  1
  C  C70  1  0.50000000  0.43924255  0.27000114  1
  C  C71  1  0.50000000  0.43824019  0.77069450  1
  C  C72  1  0.50000000  0.46924861  0.04091340  1
  C  C73  1  0.50000000  0.46934316  0.54241759  1
  C  C74  1  0.50000000  0.46920414  0.41716724  1
  C  C75  1  0.50000000  0.46927533  0.91619041  1
  C  C76  1  0.50000000  0.46919927  0.16640114  1
  C  C77  1  0.50000000  0.46922282  0.66691704  1
  C  C78  1  0.50000000  0.46922454  0.29179319  1
  C  C79  1  0.50000000  0.46921387  0.79155751  1
  C  C80  1  0.50000000  0.53078147  0.08283246  1
  C  C81  1  0.50000000  0.53073655  0.58377381  1
  C  C82  1  0.50000000  0.53074670  0.45908277  1
  C  C83  1  0.50000000  0.53066003  0.95757440  1
  C  C84  1  0.50000000  0.53078085  0.20820363  1
  C  C85  1  0.50000000  0.53079111  0.70837939  1
  C  C86  1  0.50000000  0.53078976  0.33359906  1
  C  C87  1  0.50000000  0.53078533  0.83302866  1
  C  C88  1  0.50000000  0.56070950  0.10460646  1
  C  C89  1  0.50000000  0.56180353  0.60465385  1
  C  C90  1  0.50000000  0.56038989  0.48072023  1
  C  C91  1  0.50000000  0.56124310  0.97890419  1
  C  C92  1  0.50000000  0.56076873  0.23000287  1
  C  C93  1  0.50000000  0.56176313  0.72923900  1
  C  C94  1  0.50000000  0.56074970  0.35537817  1
  C  C95  1  0.50000000  0.56174351  0.85391652  1
  C  C96  1  0.50000000  0.49997885  0.02016027  1
  C  C97  1  0.50000000  0.50001636  0.52143419  1
  C  C98  1  0.50000000  0.50001728  0.39633071  1
  C  C99  1  0.50000000  0.49999861  0.89542741  1
  C  C100  1  0.50000000  0.49997969  0.14552952  1
  C  C101  1  0.50000000  0.50000800  0.64621675  1
  C  C102  1  0.50000000  0.50000374  0.27091900  1
  C  C103  1  0.50000000  0.50000356  0.77082898  1
  C  C104  1  0.50000000  0.53070601  0.04091513  1
  C  C105  1  0.50000000  0.53068865  0.54241701  1
  C  C106  1  0.50000000  0.53082945  0.41716611  1
  C  C107  1  0.50000000  0.53071889  0.91620253  1
  C  C108  1  0.50000000  0.53076174  0.16639559  1
  C  C109  1  0.50000000  0.53079142  0.66691740  1
  C  C110  1  0.50000000  0.53079389  0.29178190  1
  C  C111  1  0.50000000  0.53079000  0.79156345  1
  C  C112  1  0.50000000  0.59253131  0.58398438  1
  C  C113  1  0.50000000  0.59278617  0.95783515  1
  C  C114  1  0.50000000  0.59252586  0.70855453  1
  C  C115  1  0.50000000  0.59256718  0.83312313  1
  C  C116  1  0.50000000  0.62328277  0.60466044  1
  C  C117  1  0.50000000  0.62301387  0.97716012  1
  C  C118  1  0.50000000  0.62325985  0.72923406  1
  C  C119  1  0.50000000  0.62320830  0.85376454  1
  C  C120  1  0.50000000  0.56035204  0.01928304  1
  C  C121  1  0.50000000  0.56127216  0.52108893  1
  C  C122  1  0.50000000  0.56074857  0.39537759  1
  C  C123  1  0.50000000  0.56178646  0.89530465  1
  C  C124  1  0.50000000  0.56072165  0.14461476  1
  C  C125  1  0.50000000  0.56175064  0.64603200  1
  C  C126  1  0.50000000  0.56077503  0.26998200  1
  C  C127  1  0.50000000  0.56176478  0.77070255  1
  C  C128  1  0.50000000  0.59281984  0.54214291  1
  C  C129  1  0.50000000  0.59250334  0.91598528  1
  C  C130  1  0.50000000  0.59257349  0.66681769  1
  C  C131  1  0.50000000  0.59252721  0.79138353  1
  C  C132  1  0.50000000  0.65414828  0.58395540  1
  C  C133  1  0.50000000  0.65387514  0.95756370  1
  C  C134  1  0.50000000  0.65421586  0.70836276  1
  C  C135  1  0.50000000  0.65427186  0.83316923  1
  C  C136  1  0.50000000  0.68519469  0.60394285  1
  C  C137  1  0.50000000  0.68416402  0.97843089  1
  C  C138  1  0.50000000  0.68490299  0.72899039  1
  C  C139  1  0.50000000  0.68501347  0.85382146  1
  C  C140  1  0.50000000  0.62304675  0.52281514  1
  C  C141  1  0.50000000  0.62324974  0.89529225  1
  C  C142  1  0.50000000  0.62322399  0.64618323  1
  C  C143  1  0.50000000  0.62325948  0.77070353  1
  C  C144  1  0.50000000  0.65391282  0.54239606  1
  C  C145  1  0.50000000  0.65411028  0.91599844  1
  C  C146  1  0.50000000  0.65428630  0.66677412  1
  C  C147  1  0.50000000  0.65420911  0.79157539  1
  C  C148  1  0.50000000  0.71476580  0.58199579  1
  C  C149  1  0.50000000  0.71425761  0.95860677  1
  C  C150  1  0.50000000  0.71486332  0.70760641  1
  C  C151  1  0.50000000  0.71488874  0.83236581  1
  C  C152  1  0.50000000  0.68420237  0.52153327  1
  C  C153  1  0.50000000  0.68515392  0.89599944  1
  C  C154  1  0.50000000  0.68503284  0.64611870  1
  C  C155  1  0.50000000  0.68489388  0.77093841  1
  C  C156  1  0.50000000  0.71430414  0.54134230  1
  C  C157  1  0.50000000  0.71471927  0.91795611  1
  C  C158  1  0.50000000  0.71490942  0.66756784  1
  C  C159  1  0.50000000  0.71484441  0.79233353  1
  H  H160  1  0.50000000  0.26110039  0.59650245  1
  H  H161  1  0.50000000  0.26212179  0.97453579  1
  H  H162  1  0.50000000  0.26118651  0.72251711  1
  H  H163  1  0.50000000  0.26117428  0.84738385  1
  H  H164  1  0.50000000  0.26213037  0.52532572  1
  H  H165  1  0.50000000  0.26110419  0.90334198  1
  H  H166  1  0.50000000  0.26117355  0.65244574  1
  H  H167  1  0.50000000  0.26119003  0.77734107  1
  H  H168  1  0.50000000  0.73892561  0.59654631  1
  H  H169  1  0.50000000  0.73784237  0.97459891  1
  H  H170  1  0.50000000  0.73882156  0.72255640  1
  H  H171  1  0.50000000  0.73881439  0.84743543  1
  H  H172  1  0.50000000  0.73789049  0.52535175  1
  H  H173  1  0.50000000  0.73888653  0.90342186  1
  H  H174  1  0.50000000  0.73882629  0.65247569  1
  H  H175  1  0.50000000  0.73880945  0.77740533  1
  H  H176  1  0.50000000  0.31652268  0.01023949  1
  H  H177  1  0.50000000  0.37600785  0.00885735  1
  H  H178  1  0.50000000  0.31656153  0.48964506  1
  H  H179  1  0.50000000  0.41519618  0.08976898  1
  H  H180  1  0.50000000  0.41612618  0.46503363  1
  H  H181  1  0.50000000  0.41520918  0.21510007  1
  H  H182  1  0.50000000  0.41528731  0.34044219  1
  H  H183  1  0.50000000  0.37604685  0.49107394  1
  H  H184  1  0.50000000  0.41609841  0.03495637  1
  H  H185  1  0.50000000  0.41520682  0.41018946  1
  H  H186  1  0.50000000  0.41524185  0.15957420  1
  H  H187  1  0.50000000  0.41525508  0.28497117  1
  H  H188  1  0.50000000  0.58477820  0.08980796  1
  H  H189  1  0.50000000  0.58391200  0.46503829  1
  H  H190  1  0.50000000  0.58478389  0.21507845  1
  H  H191  1  0.50000000  0.58474181  0.34043242  1
  H  H192  1  0.50000000  0.62396785  0.00888908  1
  H  H193  1  0.50000000  0.58385348  0.03501211  1
  H  H194  1  0.50000000  0.58482226  0.41018240  1
  H  H195  1  0.50000000  0.58469640  0.15959337  1
  H  H196  1  0.50000000  0.58477751  0.28493395  1
  H  H197  1  0.50000000  0.68342995  0.01027962  1
  H  H198  1  0.50000000  0.62400953  0.49108877  1
  H  H199  1  0.50000000  0.68344307  0.48968752  1
