# generated using pymatgen
data_HC4
_symmetry_space_group_name_H-M   'P 1'
_cell_length_a   20.00000000
_cell_length_b   40.19450000
_cell_length_c   34.41663718
_cell_angle_alpha   90.00000000
_cell_angle_beta   90.00000000
_cell_angle_gamma   90.00000000
_symmetry_Int_Tables_number   1
_chemical_formula_structural   HC4
_chemical_formula_sum   'H40 C160'
_cell_volume   27667.19046444
_cell_formula_units_Z   40
loop_
 _symmetry_equiv_pos_site_id
 _symmetry_equiv_pos_as_xyz
  1  'x, y, z'
loop_
 _atom_site_type_symbol
 _atom_site_label
 _atom_site_symmetry_multiplicity
 _atom_site_fract_x
 _atom_site_fract_y
 _atom_site_fract_z
 _atom_site_occupancy
  C  C0  1  0.50000000  0.28493930  0.58299953  1
  C  C1  1  0.50000000  0.28488761  0.95738170  1
  C  C2  1  0.50000000  0.28536429  0.70761485  1
  C  C3  1  0.50000000  0.28521213  0.83218441  1
  C  C4  1  0.50000000  0.31503571  0.60406052  1
  C  C5  1  0.50000000  0.31493736  0.97759858  1
  C  C6  1  0.50000000  0.31543727  0.72900146  1
  C  C7  1  0.50000000  0.31518381  0.85373754  1
  C  C8  1  0.50000000  0.28490474  0.54263246  1
  C  C9  1  0.50000000  0.28485553  0.91700282  1
  C  C10  1  0.50000000  0.28534953  0.66768054  1
  C  C11  1  0.50000000  0.28529625  0.79220915  1
  C  C12  1  0.50000000  0.34588561  0.58340102  1
  C  C13  1  0.50000000  0.34558261  0.95797706  1
  C  C14  1  0.50000000  0.34609743  0.70832796  1
  C  C15  1  0.50000000  0.34591930  0.83324253  1
  C  C16  1  0.50000000  0.37767290  0.10478513  1
  C  C17  1  0.50000000  0.37686309  0.60443733  1
  C  C18  1  0.50000000  0.37815404  0.48050965  1
  C  C19  1  0.50000000  0.37712725  0.97893214  1
  C  C20  1  0.50000000  0.37764862  0.23003377  1
  C  C21  1  0.50000000  0.37703150  0.72927116  1
  C  C22  1  0.50000000  0.37777555  0.35524223  1
  C  C23  1  0.50000000  0.37691183  0.85420500  1
  C  C24  1  0.50000000  0.31491255  0.52229887  1
  C  C25  1  0.50000000  0.31493143  0.89586561  1
  C  C26  1  0.50000000  0.31532012  0.64617387  1
  C  C27  1  0.50000000  0.31539694  0.77090067  1
  C  C28  1  0.50000000  0.34559016  0.54187619  1
  C  C29  1  0.50000000  0.34582749  0.91647433  1
  C  C30  1  0.50000000  0.34601689  0.66668783  1
  C  C31  1  0.50000000  0.34602478  0.79159617  1
  C  C32  1  0.50000000  0.40758062  0.08297448  1
  C  C33  1  0.50000000  0.40775910  0.58363872  1
  C  C34  1  0.50000000  0.40780269  0.45899190  1
  C  C35  1  0.50000000  0.40774967  0.95775163  1
  C  C36  1  0.50000000  0.40761238  0.20826509  1
  C  C37  1  0.50000000  0.40782404  0.70837137  1
  C  C38  1  0.50000000  0.40771401  0.33359780  1
  C  C39  1  0.50000000  0.40777362  0.83328364  1
  C  C40  1  0.50000000  0.43843544  0.10374138  1
  C  C41  1  0.50000000  0.43852384  0.60441628  1
  C  C42  1  0.50000000  0.43855583  0.47968120  1
  C  C43  1  0.50000000  0.43845591  0.97868246  1
  C  C44  1  0.50000000  0.43839238  0.22911532  1
  C  C45  1  0.50000000  0.43852678  0.72915463  1
  C  C46  1  0.50000000  0.43850895  0.35443321  1
  C  C47  1  0.50000000  0.43849284  0.85391995  1
  C  C48  1  0.50000000  0.37805203  0.01939941  1
  C  C49  1  0.50000000  0.37715651  0.52095003  1
  C  C50  1  0.50000000  0.37776920  0.39527663  1
  C  C51  1  0.50000000  0.37680633  0.89548745  1
  C  C52  1  0.50000000  0.37773130  0.14483220  1
  C  C53  1  0.50000000  0.37698046  0.64572741  1
  C  C54  1  0.50000000  0.37766044  0.27005863  1
  C  C55  1  0.50000000  0.37699442  0.77068109  1
  C  C56  1  0.50000000  0.40768010  0.04097643  1
  C  C57  1  0.50000000  0.40777420  0.54217202  1
  C  C58  1  0.50000000  0.40769709  0.41700397  1
  C  C59  1  0.50000000  0.40771972  0.91628564  1
  C  C60  1  0.50000000  0.40767432  0.16645610  1
  C  C61  1  0.50000000  0.40782055  0.66666405  1
  C  C62  1  0.50000000  0.40764086  0.29179505  1
  C  C63  1  0.50000000  0.40779423  0.79158014  1
  C  C64  1  0.50000000  0.46931677  0.08295723  1
  C  C65  1  0.50000000  0.46927124  0.58362578  1
  C  C66  1  0.50000000  0.46934614  0.45896860  1
  C  C67  1  0.50000000  0.46918021  0.95764473  1
  C  C68  1  0.50000000  0.46920096  0.20827478  1
  C  C69  1  0.50000000  0.46941826  0.70832057  1
  C  C70  1  0.50000000  0.46926064  0.33352803  1
  C  C71  1  0.50000000  0.46941377  0.83306951  1
  C  C72  1  0.50000000  0.49922451  0.10476623  1
  C  C73  1  0.50000000  0.50033168  0.60454581  1
  C  C74  1  0.50000000  0.49894917  0.48064003  1
  C  C75  1  0.50000000  0.49982861  0.97890677  1
  C  C76  1  0.50000000  0.49919213  0.23000111  1
  C  C77  1  0.50000000  0.50027128  0.72915858  1
  C  C78  1  0.50000000  0.49925772  0.35516604  1
  C  C79  1  0.50000000  0.50026958  0.85381392  1
  C  C80  1  0.50000000  0.43846774  0.02029167  1
  C  C81  1  0.50000000  0.43848605  0.52126357  1
  C  C82  1  0.50000000  0.43854448  0.39627227  1
  C  C83  1  0.50000000  0.43850452  0.89552770  1
  C  C84  1  0.50000000  0.43844680  0.14559638  1
  C  C85  1  0.50000000  0.43851961  0.64602704  1
  C  C86  1  0.50000000  0.43841540  0.27092841  1
  C  C87  1  0.50000000  0.43851294  0.77080479  1
  C  C88  1  0.50000000  0.46926702  0.04100167  1
  C  C89  1  0.50000000  0.46918301  0.54230575  1
  C  C90  1  0.50000000  0.46944085  0.41702816  1
  C  C91  1  0.50000000  0.46926426  0.91631306  1
  C  C92  1  0.50000000  0.46921232  0.16647088  1
  C  C93  1  0.50000000  0.46941653  0.66688455  1
  C  C94  1  0.50000000  0.46922896  0.29172397  1
  C  C95  1  0.50000000  0.46941447  0.79163390  1
  C  C96  1  0.50000000  0.53094206  0.58407090  1
  C  C97  1  0.50000000  0.53138411  0.95781221  1
  C  C98  1  0.50000000  0.53100074  0.70852836  1
  C  C99  1  0.50000000  0.53103618  0.83299272  1
  C  C100  1  0.50000000  0.56180060  0.60485520  1
  C  C101  1  0.50000000  0.56168849  0.97693809  1
  C  C102  1  0.50000000  0.56193750  0.72924224  1
  C  C103  1  0.50000000  0.56189734  0.85357746  1
  C  C104  1  0.50000000  0.49891172  0.01930676  1
  C  C105  1  0.50000000  0.49980933  0.52104859  1
  C  C106  1  0.50000000  0.49933246  0.39517706  1
  C  C107  1  0.50000000  0.50034776  0.89539465  1
  C  C108  1  0.50000000  0.49918025  0.14478782  1
  C  C109  1  0.50000000  0.50025486  0.64612679  1
  C  C110  1  0.50000000  0.49921419  0.26999451  1
  C  C111  1  0.50000000  0.50027888  0.77080453  1
  C  C112  1  0.50000000  0.53133095  0.54214871  1
  C  C113  1  0.50000000  0.53098153  0.91587228  1
  C  C114  1  0.50000000  0.53100729  0.66695513  1
  C  C115  1  0.50000000  0.53102046  0.79142521  1
  C  C116  1  0.50000000  0.59258079  0.58441442  1
  C  C117  1  0.50000000  0.59260370  0.95724144  1
  C  C118  1  0.50000000  0.59275913  0.70859304  1
  C  C119  1  0.50000000  0.59282799  0.83302766  1
  C  C120  1  0.50000000  0.62337114  0.60462044  1
  C  C121  1  0.50000000  0.62267396  0.97766088  1
  C  C122  1  0.50000000  0.62349810  0.72919566  1
  C  C123  1  0.50000000  0.62349216  0.85369746  1
  C  C124  1  0.50000000  0.56160517  0.52300093  1
  C  C125  1  0.50000000  0.56186250  0.89507100  1
  C  C126  1  0.50000000  0.56184259  0.64634612  1
  C  C127  1  0.50000000  0.56195924  0.77071909  1
  C  C128  1  0.50000000  0.59248597  0.54267618  1
  C  C129  1  0.50000000  0.59268626  0.91548293  1
  C  C130  1  0.50000000  0.59276420  0.66689149  1
  C  C131  1  0.50000000  0.59279884  0.79133900  1
  C  C132  1  0.50000000  0.65397840  0.58337107  1
  C  C133  1  0.50000000  0.65358478  0.95828898  1
  C  C134  1  0.50000000  0.65442129  0.70827107  1
  C  C135  1  0.50000000  0.65455714  0.83325560  1
  C  C136  1  0.50000000  0.68512124  0.60330367  1
  C  C137  1  0.50000000  0.68397890  0.97918930  1
  C  C138  1  0.50000000  0.68513182  0.72887402  1
  C  C139  1  0.50000000  0.68524681  0.85418672  1
  C  C140  1  0.50000000  0.62249970  0.52218928  1
  C  C141  1  0.50000000  0.62349011  0.89524172  1
  C  C142  1  0.50000000  0.62339430  0.64617419  1
  C  C143  1  0.50000000  0.62352884  0.77072751  1
  C  C144  1  0.50000000  0.65341953  0.54152018  1
  C  C145  1  0.50000000  0.65414030  0.91644379  1
  C  C146  1  0.50000000  0.65444548  0.66661720  1
  C  C147  1  0.50000000  0.65447189  0.79161426  1
  C  C148  1  0.50000000  0.71459741  0.58117718  1
  C  C149  1  0.50000000  0.71408326  0.95949095  1
  C  C150  1  0.50000000  0.71495257  0.70725211  1
  C  C151  1  0.50000000  0.71505740  0.83263949  1
  C  C152  1  0.50000000  0.68382799  0.52067088  1
  C  C153  1  0.50000000  0.68530997  0.89653872  1
  C  C154  1  0.50000000  0.68509357  0.64564330  1
  C  C155  1  0.50000000  0.68515414  0.77095824  1
  C  C156  1  0.50000000  0.71390528  0.54042474  1
  C  C157  1  0.50000000  0.71477829  0.91872382  1
  C  C158  1  0.50000000  0.71493684  0.66711979  1
  C  C159  1  0.50000000  0.71501120  0.79250480  1
  H  H160  1  0.50000000  0.26108050  0.59820372  1
  H  H161  1  0.50000000  0.26130259  0.97337576  1
  H  H162  1  0.50000000  0.26136364  0.72249574  1
  H  H163  1  0.50000000  0.26123170  0.84716300  1
  H  H164  1  0.50000000  0.26123519  0.52680867  1
  H  H165  1  0.50000000  0.26095642  0.90186295  1
  H  H166  1  0.50000000  0.26137927  0.65269574  1
  H  H167  1  0.50000000  0.26137885  0.77712852  1
  H  H168  1  0.50000000  0.73883020  0.59558269  1
  H  H169  1  0.50000000  0.73754445  0.97579498  1
  H  H170  1  0.50000000  0.73895874  0.72209308  1
  H  H171  1  0.50000000  0.73901949  0.84763693  1
  H  H172  1  0.50000000  0.73736769  0.52416251  1
  H  H173  1  0.50000000  0.73904803  0.90439389  1
  H  H174  1  0.50000000  0.73891296  0.65216203  1
  H  H175  1  0.50000000  0.73894671  0.77749158  1
  H  H176  1  0.50000000  0.31404778  0.00933777  1
  H  H177  1  0.50000000  0.35352021  0.09013995  1
  H  H178  1  0.50000000  0.35473457  0.46467704  1
  H  H179  1  0.50000000  0.35367156  0.21501542  1
  H  H180  1  0.50000000  0.35383237  0.34018526  1
  H  H181  1  0.50000000  0.31394840  0.49054113  1
  H  H182  1  0.50000000  0.35456584  0.03511653  1
  H  H183  1  0.50000000  0.35367873  0.41005533  1
  H  H184  1  0.50000000  0.35381326  0.15993366  1
  H  H185  1  0.50000000  0.35371212  0.28514961  1
  H  H186  1  0.50000000  0.52332699  0.09007337  1
  H  H187  1  0.50000000  0.52250536  0.46503299  1
  H  H188  1  0.50000000  0.52311665  0.21489341  1
  H  H189  1  0.50000000  0.52311023  0.33993089  1
  H  H190  1  0.50000000  0.56280677  0.00866610  1
  H  H191  1  0.50000000  0.52245639  0.03496734  1
  H  H192  1  0.50000000  0.52341849  0.40993420  1
  H  H193  1  0.50000000  0.52306486  0.15993678  1
  H  H194  1  0.50000000  0.52313335  0.28510344  1
  H  H195  1  0.50000000  0.62223692  0.00953728  1
  H  H196  1  0.50000000  0.56271345  0.49128244  1
  H  H197  1  0.50000000  0.68316622  0.01104326  1
  H  H198  1  0.50000000  0.62191718  0.49032312  1
  H  H199  1  0.50000000  0.68313163  0.48882147  1
