# generated using pymatgen
data_H21C80
_symmetry_space_group_name_H-M   'P 1'
_cell_length_a   20.00000000
_cell_length_b   40.19450000
_cell_length_c   34.92212533
_cell_angle_alpha   90.00000000
_cell_angle_beta   90.00000000
_cell_angle_gamma   90.00000000
_symmetry_Int_Tables_number   1
_chemical_formula_structural   H21C80
_chemical_formula_sum   'H42 C160'
_cell_volume   28073.54733230
_cell_formula_units_Z   2
loop_
 _symmetry_equiv_pos_site_id
 _symmetry_equiv_pos_as_xyz
  1  'x, y, z'
loop_
 _atom_site_type_symbol
 _atom_site_label
 _atom_site_symmetry_multiplicity
 _atom_site_fract_x
 _atom_site_fract_y
 _atom_site_fract_z
 _atom_site_occupancy
  C  C0  1  0.50000000  0.28450795  0.58879406  1
  C  C1  1  0.50000000  0.28306963  0.95048917  1
  C  C2  1  0.50000000  0.28691638  0.70876503  1
  C  C3  1  0.50000000  0.28674716  0.83055110  1
  C  C4  1  0.50000000  0.31572751  0.60677182  1
  C  C5  1  0.50000000  0.31223396  0.97167800  1
  C  C6  1  0.50000000  0.31700335  0.72934829  1
  C  C7  1  0.50000000  0.31655585  0.85181868  1
  C  C8  1  0.50000000  0.28294298  0.54948620  1
  C  C9  1  0.50000000  0.28459078  0.91119266  1
  C  C10  1  0.50000000  0.28669368  0.66943745  1
  C  C11  1  0.50000000  0.28695295  0.79122306  1
  C  C12  1  0.50000000  0.34758489  0.08441773  1
  C  C13  1  0.50000000  0.34600493  0.58491268  1
  C  C14  1  0.50000000  0.34772744  0.45466322  1
  C  C15  1  0.50000000  0.34481287  0.95633021  1
  C  C16  1  0.50000000  0.34693809  0.20767604  1
  C  C17  1  0.50000000  0.34748883  0.70878563  1
  C  C18  1  0.50000000  0.34691536  0.33161139  1
  C  C19  1  0.50000000  0.34734983  0.83223128  1
  C  C20  1  0.50000000  0.37721907  0.10570267  1
  C  C21  1  0.50000000  0.37739558  0.60489819  1
  C  C22  1  0.50000000  0.37647598  0.47883984  1
  C  C23  1  0.50000000  0.37594847  0.97924163  1
  C  C24  1  0.50000000  0.37687012  0.22937949  1
  C  C25  1  0.50000000  0.37817621  0.72940897  1
  C  C26  1  0.50000000  0.37701024  0.35303893  1
  C  C27  1  0.50000000  0.37783226  0.85359980  1
  C  C28  1  0.50000000  0.31208352  0.52825453  1
  C  C29  1  0.50000000  0.31579518  0.89317362  1
  C  C30  1  0.50000000  0.31649118  0.64813253  1
  C  C31  1  0.50000000  0.31702387  0.77062347  1
  C  C32  1  0.50000000  0.34773392  0.04527739  1
  C  C33  1  0.50000000  0.34469146  0.54357041  1
  C  C34  1  0.50000000  0.34755629  0.41552914  1
  C  C35  1  0.50000000  0.34608712  0.91500984  1
  C  C36  1  0.50000000  0.34693726  0.16828937  1
  C  C37  1  0.50000000  0.34729783  0.66770352  1
  C  C38  1  0.50000000  0.34692505  0.29222285  1
  C  C39  1  0.50000000  0.34753049  0.79114929  1
  C  C40  1  0.50000000  0.40735083  0.08402335  1
  C  C41  1  0.50000000  0.40767650  0.58354655  1
  C  C42  1  0.50000000  0.40740443  0.45795259  1
  C  C43  1  0.50000000  0.40740031  0.95866465  1
  C  C44  1  0.50000000  0.40766836  0.20886306  1
  C  C45  1  0.50000000  0.40850001  0.70855815  1
  C  C46  1  0.50000000  0.40754479  0.33221214  1
  C  C47  1  0.50000000  0.40831990  0.83279765  1
  C  C48  1  0.50000000  0.43745746  0.10576640  1
  C  C49  1  0.50000000  0.43841105  0.60499081  1
  C  C50  1  0.50000000  0.43837497  0.47877829  1
  C  C51  1  0.50000000  0.43868518  0.97931588  1
  C  C52  1  0.50000000  0.43852915  0.22935968  1
  C  C53  1  0.50000000  0.43900766  0.72934881  1
  C  C54  1  0.50000000  0.43798636  0.35307466  1
  C  C55  1  0.50000000  0.43879303  0.85348323  1
  C  C56  1  0.50000000  0.37649336  0.02108035  1
  C  C57  1  0.50000000  0.37586533  0.52066920  1
  C  C58  1  0.50000000  0.37717851  0.39421531  1
  C  C59  1  0.50000000  0.37745818  0.89501882  1
  C  C60  1  0.50000000  0.37703709  0.14687497  1
  C  C61  1  0.50000000  0.37777908  0.64632263  1
  C  C62  1  0.50000000  0.37685495  0.27051526  1
  C  C63  1  0.50000000  0.37820314  0.77051925  1
  C  C64  1  0.50000000  0.40741953  0.04195879  1
  C  C65  1  0.50000000  0.40731810  0.54123614  1
  C  C66  1  0.50000000  0.40729968  0.41588972  1
  C  C67  1  0.50000000  0.40774715  0.91635866  1
  C  C68  1  0.50000000  0.40757205  0.16769234  1
  C  C69  1  0.50000000  0.40827629  0.66711740  1
  C  C70  1  0.50000000  0.40765045  0.29103424  1
  C  C71  1  0.50000000  0.40853609  0.79135210  1
  C  C72  1  0.50000000  0.46705375  0.08460631  1
  C  C73  1  0.50000000  0.46924501  0.58510927  1
  C  C74  1  0.50000000  0.46708929  0.45435553  1
  C  C75  1  0.50000000  0.46973707  0.95636909  1
  C  C76  1  0.50000000  0.46844310  0.20749960  1
  C  C77  1  0.50000000  0.46960392  0.70870861  1
  C  C78  1  0.50000000  0.46820131  0.33181204  1
  C  C79  1  0.50000000  0.46944854  0.83226223  1
  C  C80  1  0.50000000  0.49995646  0.60658832  1
  C  C81  1  0.50000000  0.50143525  0.97219468  1
  C  C82  1  0.50000000  0.50028126  0.72935941  1
  C  C83  1  0.50000000  0.50017849  0.85224357  1
  C  C84  1  0.50000000  0.43839442  0.02111996  1
  C  C85  1  0.50000000  0.43861093  0.52057883  1
  C  C86  1  0.50000000  0.43739954  0.39414131  1
  C  C87  1  0.50000000  0.43848100  0.89491024  1
  C  C88  1  0.50000000  0.43801525  0.14683262  1
  C  C89  1  0.50000000  0.43874005  0.64641471  1
  C  C90  1  0.50000000  0.43851749  0.27054636  1
  C  C91  1  0.50000000  0.43902433  0.77053613  1
  C  C92  1  0.50000000  0.46709798  0.04552856  1
  C  C93  1  0.50000000  0.46965584  0.54352924  1
  C  C94  1  0.50000000  0.46699325  0.41528513  1
  C  C95  1  0.50000000  0.46931906  0.91478683  1
  C  C96  1  0.50000000  0.46823413  0.16810657  1
  C  C97  1  0.50000000  0.46940456  0.66760020  1
  C  C98  1  0.50000000  0.46841704  0.29242642  1
  C  C99  1  0.50000000  0.46963226  0.79115345  1
  C  C100  1  0.50000000  0.53126296  0.58792247  1
  C  C101  1  0.50000000  0.53171666  0.95245821  1
  C  C102  1  0.50000000  0.53106274  0.70914574  1
  C  C103  1  0.50000000  0.53101950  0.83160627  1
  C  C104  1  0.50000000  0.56203882  0.60780595  1
  C  C105  1  0.50000000  0.56158254  0.97302936  1
  C  C106  1  0.50000000  0.56198264  0.72950637  1
  C  C107  1  0.50000000  0.56205683  0.85138856  1
  C  C108  1  0.50000000  0.50134297  0.52768156  1
  C  C109  1  0.50000000  0.50001906  0.89327997  1
  C  C110  1  0.50000000  0.50013196  0.64761985  1
  C  C111  1  0.50000000  0.50029292  0.77048649  1
  C  C112  1  0.50000000  0.53163433  0.54739036  1
  C  C113  1  0.50000000  0.53133358  0.91192191  1
  C  C114  1  0.50000000  0.53098047  0.66824663  1
  C  C115  1  0.50000000  0.53108551  0.79070174  1
  C  C116  1  0.50000000  0.59252557  0.58707887  1
  C  C117  1  0.50000000  0.59236154  0.95406802  1
  C  C118  1  0.50000000  0.59289267  0.70935906  1
  C  C119  1  0.50000000  0.59294076  0.83138690  1
  C  C120  1  0.50000000  0.62332681  0.60685341  1
  C  C121  1  0.50000000  0.62252908  0.97425528  1
  C  C122  1  0.50000000  0.62366958  0.72948828  1
  C  C123  1  0.50000000  0.62350126  0.85199401  1
  C  C124  1  0.50000000  0.56149228  0.52678963  1
  C  C125  1  0.50000000  0.56210245  0.89203323  1
  C  C126  1  0.50000000  0.56201455  0.64844520  1
  C  C127  1  0.50000000  0.56199502  0.77032567  1
  C  C128  1  0.50000000  0.59227546  0.54574684  1
  C  C129  1  0.50000000  0.59259507  0.91274059  1
  C  C130  1  0.50000000  0.59289949  0.66843464  1
  C  C131  1  0.50000000  0.59290338  0.79045455  1
  C  C132  1  0.50000000  0.65387450  0.58583936  1
  C  C133  1  0.50000000  0.65331312  0.95523660  1
  C  C134  1  0.50000000  0.65454832  0.70886653  1
  C  C135  1  0.50000000  0.65455646  0.83196259  1
  C  C136  1  0.50000000  0.68502713  0.60535917  1
  C  C137  1  0.50000000  0.68372260  0.97588878  1
  C  C138  1  0.50000000  0.68530205  0.72913479  1
  C  C139  1  0.50000000  0.68518605  0.85270369  1
  C  C140  1  0.50000000  0.62243647  0.52551936  1
  C  C141  1  0.50000000  0.62339641  0.89296067  1
  C  C142  1  0.50000000  0.62345213  0.64782027  1
  C  C143  1  0.50000000  0.62367755  0.77030708  1
  C  C144  1  0.50000000  0.65322271  0.54455151  1
  C  C145  1  0.50000000  0.65395226  0.91396083  1
  C  C146  1  0.50000000  0.65451257  0.66782705  1
  C  C147  1  0.50000000  0.65456016  0.79091668  1
  C  C148  1  0.50000000  0.71447437  0.58347608  1
  C  C149  1  0.50000000  0.71382011  0.95652325  1
  C  C150  1  0.50000000  0.71509555  0.70776392  1
  C  C151  1  0.50000000  0.71503202  0.83157115  1
  C  C152  1  0.50000000  0.68363342  0.52390011  1
  C  C153  1  0.50000000  0.68510395  0.89443989  1
  C  C154  1  0.50000000  0.68513207  0.64708605  1
  C  C155  1  0.50000000  0.68530851  0.77063441  1
  C  C156  1  0.50000000  0.71372593  0.54327739  1
  C  C157  1  0.50000000  0.71455086  0.91632575  1
  C  C158  1  0.50000000  0.71499848  0.66818742  1
  C  C159  1  0.50000000  0.71511344  0.79198911  1
  H  H160  1  0.50000000  0.26146133  0.60521215  1
  H  H161  1  0.50000000  0.25911951  0.96551404  1
  H  H162  1  0.50000000  0.26308876  0.72371872  1
  H  H163  1  0.50000000  0.26263122  0.84487714  1
  H  H164  1  0.50000000  0.25897575  0.53449276  1
  H  H165  1  0.50000000  0.26151682  0.89481473  1
  H  H166  1  0.50000000  0.26254598  0.65517437  1
  H  H167  1  0.50000000  0.26313029  0.77626120  1
  H  H168  1  0.50000000  0.73868114  0.59774510  1
  H  H169  1  0.50000000  0.73721226  0.97269953  1
  H  H170  1  0.50000000  0.73911788  0.72239898  1
  H  H171  1  0.50000000  0.73896071  0.84643270  1
  H  H172  1  0.50000000  0.73713273  0.52714877  1
  H  H173  1  0.50000000  0.73873436  0.90201476  1
  H  H174  1  0.50000000  0.73891552  0.65328565  1
  H  H175  1  0.50000000  0.73914006  0.77736515  1
  H  H176  1  0.50000000  0.30715188  0.00167130  1
  H  H177  1  0.50000000  0.32334895  0.09859055  1
  H  H178  1  0.50000000  0.32299015  0.46578995  1
  H  H179  1  0.50000000  0.32293839  0.22233596  1
  H  H180  1  0.50000000  0.32293479  0.34632880  1
  H  H181  1  0.50000000  0.30688598  0.49825889  1
  H  H182  1  0.50000000  0.32296120  0.03425678  1
  H  H183  1  0.50000000  0.32333523  0.40132489  1
  H  H184  1  0.50000000  0.32297658  0.15351570  1
  H  H185  1  0.50000000  0.32291069  0.27761887  1
  H  H186  1  0.50000000  0.49119973  0.09893319  1
  H  H187  1  0.50000000  0.49220192  0.46438734  1
  H  H188  1  0.50000000  0.49259471  0.22194958  1
  H  H189  1  0.50000000  0.49216628  0.34659490  1
  H  H190  1  0.50000000  0.50602672  0.00218164  1
  H  H191  1  0.50000000  0.49217840  0.03542151  1
  H  H192  1  0.50000000  0.49111358  0.40091288  1
  H  H193  1  0.50000000  0.49216633  0.15324656  1
  H  H194  1  0.50000000  0.49258880  0.27802351  1
  H  H195  1  0.50000000  0.56101692  0.00442928  1
  H  H196  1  0.50000000  0.50591144  0.49768815  1
  H  H197  1  0.50000000  0.62199228  0.00563826  1
  H  H198  1  0.50000000  0.56089689  0.49538865  1
  H  H199  1  0.50000000  0.68289139  0.00727704  1
  H  H200  1  0.50000000  0.62185793  0.49412750  1
  H  H201  1  0.50000000  0.68277760  0.49251108  1
