# generated using pymatgen
data_H5C21
_symmetry_space_group_name_H-M   'P 1'
_cell_length_a   20.00000000
_cell_length_b   40.19450000
_cell_length_c   34.66797249
_cell_angle_alpha   90.00000000
_cell_angle_beta   90.00000000
_cell_angle_gamma   90.00000000
_symmetry_Int_Tables_number   1
_chemical_formula_structural   H5C21
_chemical_formula_sum   'H40 C168'
_cell_volume   27869.23640842
_cell_formula_units_Z   8
loop_
 _symmetry_equiv_pos_site_id
 _symmetry_equiv_pos_as_xyz
  1  'x, y, z'
loop_
 _atom_site_type_symbol
 _atom_site_label
 _atom_site_symmetry_multiplicity
 _atom_site_fract_x
 _atom_site_fract_y
 _atom_site_fract_z
 _atom_site_occupancy
  C  C0  1  0.50000000  0.28645888  0.58466125  1
  C  C1  1  0.50000000  0.28602064  0.95526675  1
  C  C2  1  0.50000000  0.28747639  0.70810594  1
  C  C3  1  0.50000000  0.28730179  0.83146209  1
  C  C4  1  0.50000000  0.31663633  0.60521268  1
  C  C5  1  0.50000000  0.31579898  0.97573622  1
  C  C6  1  0.50000000  0.31750477  0.72909898  1
  C  C7  1  0.50000000  0.31710312  0.85284948  1
  C  C8  1  0.50000000  0.28608697  0.54455905  1
  C  C9  1  0.50000000  0.28641590  0.91516530  1
  C  C10  1  0.50000000  0.28732182  0.66838890  1
  C  C11  1  0.50000000  0.28746776  0.79175247  1
  C  C12  1  0.50000000  0.34732290  0.58445306  1
  C  C13  1  0.50000000  0.34670500  0.95657343  1
  C  C14  1  0.50000000  0.34811104  0.70850926  1
  C  C15  1  0.50000000  0.34792865  0.83271797  1
  C  C16  1  0.50000000  0.37489895  0.10308938  1
  C  C17  1  0.50000000  0.37854142  0.60488473  1
  C  C18  1  0.50000000  0.37795139  0.48189764  1
  C  C19  1  0.50000000  0.37800781  0.97765066  1
  C  C20  1  0.50000000  0.37296769  0.22989108  1
  C  C21  1  0.50000000  0.37895048  0.72924567  1
  C  C22  1  0.50000000  0.37386859  0.35673127  1
  C  C23  1  0.50000000  0.37872852  0.85368867  1
  C  C24  1  0.50000000  0.31585930  0.52409762  1
  C  C25  1  0.50000000  0.31661027  0.89464670  1
  C  C26  1  0.50000000  0.31712748  0.64700977  1
  C  C27  1  0.50000000  0.31750267  0.77077055  1
  C  C28  1  0.50000000  0.34674628  0.54328922  1
  C  C29  1  0.50000000  0.34729794  0.91541723  1
  C  C30  1  0.50000000  0.34794816  0.66714983  1
  C  C31  1  0.50000000  0.34810878  0.79136346  1
  C  C32  1  0.50000000  0.40519499  0.08228547  1
  C  C33  1  0.50000000  0.40916162  0.58408014  1
  C  C34  1  0.50000000  0.40684475  0.45979932  1
  C  C35  1  0.50000000  0.40893240  0.95734974  1
  C  C36  1  0.50000000  0.40272406  0.20810253  1
  C  C37  1  0.50000000  0.40949850  0.70839606  1
  C  C38  1  0.50000000  0.40316476  0.33413570  1
  C  C39  1  0.50000000  0.40943955  0.83310082  1
  C  C40  1  0.50000000  0.43510412  0.10389243  1
  C  C41  1  0.50000000  0.44013425  0.60442394  1
  C  C42  1  0.50000000  0.43811722  0.47973323  1
  C  C43  1  0.50000000  0.43931473  0.97880237  1
  C  C44  1  0.50000000  0.43312810  0.22922706  1
  C  C45  1  0.50000000  0.44009543  0.72919872  1
  C  C46  1  0.50000000  0.43407609  0.35431044  1
  C  C47  1  0.50000000  0.44008633  0.85392246  1
  C  C48  1  0.50000000  0.37799591  0.01799405  1
  C  C49  1  0.50000000  0.37804681  0.52222635  1
  C  C50  1  0.50000000  0.37481167  0.39677889  1
  C  C51  1  0.50000000  0.37851420  0.89498296  1
  C  C52  1  0.50000000  0.37393905  0.14312622  1
  C  C53  1  0.50000000  0.37875030  0.64618623  1
  C  C54  1  0.50000000  0.37294911  0.26997210  1
  C  C55  1  0.50000000  0.37895299  0.77063136  1
  C  C56  1  0.50000000  0.40691433  0.04006199  1
  C  C57  1  0.50000000  0.40895804  0.54253837  1
  C  C58  1  0.50000000  0.40512227  0.41757235  1
  C  C59  1  0.50000000  0.40913018  0.91580362  1
  C  C60  1  0.50000000  0.40321220  0.16575202  1
  C  C61  1  0.50000000  0.40945460  0.66678716  1
  C  C62  1  0.50000000  0.40269252  0.29179075  1
  C  C63  1  0.50000000  0.40949811  0.79149415  1
  C  C64  1  0.50000000  0.46645816  0.08367870  1
  C  C65  1  0.50000000  0.47080656  0.58333536  1
  C  C66  1  0.50000000  0.46825180  0.45796885  1
  C  C67  1  0.50000000  0.47088413  0.95855592  1
  C  C68  1  0.50000000  0.46416524  0.20866953  1
  C  C69  1  0.50000000  0.47075275  0.70836883  1
  C  C70  1  0.50000000  0.46447079  0.33252100  1
  C  C71  1  0.50000000  0.47074313  0.83303438  1
  C  C72  1  0.50000000  0.49578703  0.10611831  1
  C  C73  1  0.50000000  0.50142076  0.60456070  1
  C  C74  1  0.50000000  0.49969442  0.47783338  1
  C  C75  1  0.50000000  0.50138884  0.97971951  1
  C  C76  1  0.50000000  0.49472251  0.22917854  1
  C  C77  1  0.50000000  0.50136282  0.72920810  1
  C  C78  1  0.50000000  0.49520621  0.35231225  1
  C  C79  1  0.50000000  0.50137946  0.85372311  1
  C  C80  1  0.50000000  0.43818101  0.02016427  1
  C  C81  1  0.50000000  0.43933524  0.52110900  1
  C  C82  1  0.50000000  0.43503874  0.39596963  1
  C  C83  1  0.50000000  0.44011004  0.89547572  1
  C  C84  1  0.50000000  0.43412339  0.14557006  1
  C  C85  1  0.50000000  0.44010807  0.64598018  1
  C  C86  1  0.50000000  0.43311708  0.27069405  1
  C  C87  1  0.50000000  0.44009691  0.77070474  1
  C  C88  1  0.50000000  0.46833949  0.04192175  1
  C  C89  1  0.50000000  0.47090974  0.54135803  1
  C  C90  1  0.50000000  0.46638106  0.41621168  1
  C  C91  1  0.50000000  0.47078131  0.91657730  1
  C  C92  1  0.50000000  0.46450166  0.16739938  1
  C  C93  1  0.50000000  0.47075994  0.66688110  1
  C  C94  1  0.50000000  0.46415301  0.29126557  1
  C  C95  1  0.50000000  0.47074952  0.79154577  1
  C  C96  1  0.50000000  0.52609523  0.08650649  1
  C  C97  1  0.50000000  0.53215560  0.58426888  1
  C  C98  1  0.50000000  0.52765080  0.45279538  1
  C  C99  1  0.50000000  0.53256248  0.95745765  1
  C  C100  1  0.50000000  0.52490678  0.20847745  1
  C  C101  1  0.50000000  0.53201413  0.70858244  1
  C  C102  1  0.50000000  0.52512197  0.33109225  1
  C  C103  1  0.50000000  0.53197468  0.83268763  1
  C  C104  1  0.50000000  0.56289791  0.60572792  1
  C  C105  1  0.50000000  0.56416488  0.97398174  1
  C  C106  1  0.50000000  0.56278930  0.72935731  1
  C  C107  1  0.50000000  0.56281184  0.85294662  1
  C  C108  1  0.50000000  0.49978254  0.02205625  1
  C  C109  1  0.50000000  0.50140474  0.52016426  1
  C  C110  1  0.50000000  0.49572830  0.39380758  1
  C  C111  1  0.50000000  0.50140730  0.89535435  1
  C  C112  1  0.50000000  0.49525289  0.14762912  1
  C  C113  1  0.50000000  0.50140460  0.64619784  1
  C  C114  1  0.50000000  0.49471399  0.27077250  1
  C  C115  1  0.50000000  0.50136049  0.77071326  1
  C  C116  1  0.50000000  0.52773815  0.04713529  1
  C  C117  1  0.50000000  0.53261465  0.54236895  1
  C  C118  1  0.50000000  0.52603731  0.41342507  1
  C  C119  1  0.50000000  0.53215828  0.91560245  1
  C  C120  1  0.50000000  0.52517005  0.16887221  1
  C  C121  1  0.50000000  0.53199650  0.66724712  1
  C  C122  1  0.50000000  0.52488323  0.29150120  1
  C  C123  1  0.50000000  0.53200576  0.79134694  1
  C  C124  1  0.50000000  0.59419895  0.58665541  1
  C  C125  1  0.50000000  0.59448178  0.95424536  1
  C  C126  1  0.50000000  0.59359443  0.70895850  1
  C  C127  1  0.50000000  0.59368352  0.83233605  1
  C  C128  1  0.50000000  0.62487584  0.60663068  1
  C  C129  1  0.50000000  0.62450394  0.97491236  1
  C  C130  1  0.50000000  0.62432961  0.72945083  1
  C  C131  1  0.50000000  0.62458869  0.85238605  1
  C  C132  1  0.50000000  0.56424820  0.52590159  1
  C  C133  1  0.50000000  0.56286726  0.89418155  1
  C  C134  1  0.50000000  0.56282453  0.64697212  1
  C  C135  1  0.50000000  0.56279111  0.77060383  1
  C  C136  1  0.50000000  0.59454344  0.54571147  1
  C  C137  1  0.50000000  0.59412132  0.91330788  1
  C  C138  1  0.50000000  0.59368480  0.66763241  1
  C  C139  1  0.50000000  0.59359624  0.79101550  1
  C  C140  1  0.50000000  0.65557760  0.58569400  1
  C  C141  1  0.50000000  0.65528298  0.95580621  1
  C  C142  1  0.50000000  0.65536240  0.70898765  1
  C  C143  1  0.50000000  0.65557125  0.83218892  1
  C  C144  1  0.50000000  0.68662044  0.60547679  1
  C  C145  1  0.50000000  0.68582127  0.97633930  1
  C  C146  1  0.50000000  0.68606970  0.72927630  1
  C  C147  1  0.50000000  0.68634461  0.85274113  1
  C  C148  1  0.50000000  0.62458292  0.52508172  1
  C  C149  1  0.50000000  0.62482123  0.89337308  1
  C  C150  1  0.50000000  0.62460086  0.64762182  1
  C  C151  1  0.50000000  0.62433782  0.77055195  1
  C  C152  1  0.50000000  0.65535715  0.54421290  1
  C  C153  1  0.50000000  0.65551624  0.91432578  1
  C  C154  1  0.50000000  0.65556972  0.66785112  1
  C  C155  1  0.50000000  0.65536648  0.79105149  1
  C  C156  1  0.50000000  0.71630904  0.58389438  1
  C  C157  1  0.50000000  0.71582291  0.95661831  1
  C  C158  1  0.50000000  0.71606028  0.70823069  1
  C  C159  1  0.50000000  0.71621767  0.83156281  1
  C  C160  1  0.50000000  0.68590930  0.52370981  1
  C  C161  1  0.50000000  0.68657591  0.89457192  1
  C  C162  1  0.50000000  0.68634596  0.64730956  1
  C  C163  1  0.50000000  0.68607780  0.77078215  1
  C  C164  1  0.50000000  0.71589068  0.54346082  1
  C  C165  1  0.50000000  0.71625031  0.91617845  1
  C  C166  1  0.50000000  0.71620182  0.66851423  1
  C  C167  1  0.50000000  0.71607321  0.79183793  1
  H  H168  1  0.50000000  0.26266080  0.59986963  1
  H  H169  1  0.50000000  0.26220191  0.97066323  1
  H  H170  1  0.50000000  0.26362519  0.72316382  1
  H  H171  1  0.50000000  0.26327958  0.84615235  1
  H  H172  1  0.50000000  0.26226704  0.52917608  1
  H  H173  1  0.50000000  0.26267649  0.89983098  1
  H  H174  1  0.50000000  0.26330259  0.65368564  1
  H  H175  1  0.50000000  0.26362322  0.77667786  1
  H  H176  1  0.50000000  0.74039521  0.59855176  1
  H  H177  1  0.50000000  0.73933154  0.97264295  1
  H  H178  1  0.50000000  0.73991017  0.72329726  1
  H  H179  1  0.50000000  0.74017503  0.84645222  1
  H  H180  1  0.50000000  0.73940498  0.52746412  1
  H  H181  1  0.50000000  0.74032609  0.90149500  1
  H  H182  1  0.50000000  0.74018276  0.65369411  1
  H  H183  1  0.50000000  0.73990916  0.77674352  1
  H  H184  1  0.50000000  0.31449200  0.00722404  1
  H  H185  1  0.50000000  0.35109797  0.08774926  1
  H  H186  1  0.50000000  0.35416816  0.46687521  1
  H  H187  1  0.50000000  0.34890592  0.21515995  1
  H  H188  1  0.50000000  0.34951400  0.34262413  1
  H  H189  1  0.50000000  0.31454228  0.49261152  1
  H  H190  1  0.50000000  0.35423348  0.03305396  1
  H  H191  1  0.50000000  0.35103911  0.41219774  1
  H  H192  1  0.50000000  0.34954486  0.15713142  1
  H  H193  1  0.50000000  0.34886240  0.28465349  1
  H  H194  1  0.50000000  0.54961843  0.10216395  1
  H  H195  1  0.50000000  0.55290485  0.46241787  1
  H  H196  1  0.50000000  0.54875622  0.22355033  1
  H  H197  1  0.50000000  0.54917350  0.34563930  1
  H  H198  1  0.50000000  0.56829783  0.00434625  1
  H  H199  1  0.50000000  0.55303616  0.03765329  1
  H  H200  1  0.50000000  0.54957714  0.39779395  1
  H  H201  1  0.50000000  0.54921357  0.15428163  1
  H  H202  1  0.50000000  0.54876241  0.27650645  1
  H  H203  1  0.50000000  0.62400386  0.00656818  1
  H  H204  1  0.50000000  0.56851870  0.49553568  1
  H  H205  1  0.50000000  0.68523219  0.00793641  1
  H  H206  1  0.50000000  0.62409272  0.49342308  1
  H  H207  1  0.50000000  0.68535839  0.49211454  1
