# generated using pymatgen
data_H5C21
_symmetry_space_group_name_H-M   'P 1'
_cell_length_a   20.00000000
_cell_length_b   40.19450000
_cell_length_c   34.65760060
_cell_angle_alpha   90.00000000
_cell_angle_beta   90.00000000
_cell_angle_gamma   90.00000000
_symmetry_Int_Tables_number   1
_chemical_formula_structural   H5C21
_chemical_formula_sum   'H40 C168'
_cell_volume   27860.89854568
_cell_formula_units_Z   8
loop_
 _symmetry_equiv_pos_site_id
 _symmetry_equiv_pos_as_xyz
  1  'x, y, z'
loop_
 _atom_site_type_symbol
 _atom_site_label
 _atom_site_symmetry_multiplicity
 _atom_site_fract_x
 _atom_site_fract_y
 _atom_site_fract_z
 _atom_site_occupancy
  C  C0  1  0.50000000  0.28360372  0.58759695  1
  C  C1  1  0.50000000  0.28227375  0.95202662  1
  C  C2  1  0.50000000  0.28542762  0.70857340  1
  C  C3  1  0.50000000  0.28534750  0.83097420  1
  C  C4  1  0.50000000  0.31457251  0.60605828  1
  C  C5  1  0.50000000  0.31151040  0.97320314  1
  C  C6  1  0.50000000  0.31553268  0.72927150  1
  C  C7  1  0.50000000  0.31520909  0.85227159  1
  C  C8  1  0.50000000  0.28224355  0.54790133  1
  C  C9  1  0.50000000  0.28366656  0.91234811  1
  C  C10  1  0.50000000  0.28531307  0.66899231  1
  C  C11  1  0.50000000  0.28544050  0.79139763  1
  C  C12  1  0.50000000  0.35013004  0.08586498  1
  C  C13  1  0.50000000  0.34500040  0.58441847  1
  C  C14  1  0.50000000  0.34867702  0.45340924  1
  C  C15  1  0.50000000  0.34397997  0.95719104  1
  C  C16  1  0.50000000  0.35106537  0.20820128  1
  C  C17  1  0.50000000  0.34607965  0.70874801  1
  C  C18  1  0.50000000  0.35085931  0.33135870  1
  C  C19  1  0.50000000  0.34595579  0.83243990  1
  C  C20  1  0.50000000  0.38037744  0.10569469  1
  C  C21  1  0.50000000  0.37607985  0.60476976  1
  C  C22  1  0.50000000  0.37678130  0.47818536  1
  C  C23  1  0.50000000  0.37522391  0.97943627  1
  C  C24  1  0.50000000  0.38118619  0.22908060  1
  C  C25  1  0.50000000  0.37683824  0.72935215  1
  C  C26  1  0.50000000  0.38077977  0.35262678  1
  C  C27  1  0.50000000  0.37649395  0.85369470  1
  C  C28  1  0.50000000  0.31149654  0.52675034  1
  C  C29  1  0.50000000  0.31463583  0.89389428  1
  C  C30  1  0.50000000  0.31516717  0.64766827  1
  C  C31  1  0.50000000  0.31553550  0.77068810  1
  C  C32  1  0.50000000  0.34876882  0.04645179  1
  C  C33  1  0.50000000  0.34394168  0.54279457  1
  C  C34  1  0.50000000  0.35011288  0.41398874  1
  C  C35  1  0.50000000  0.34504832  0.91555520  1
  C  C36  1  0.50000000  0.35085027  0.16853530  1
  C  C37  1  0.50000000  0.34592840  0.66749619  1
  C  C38  1  0.50000000  0.35106545  0.29169420  1
  C  C39  1  0.50000000  0.34608622  0.79119435  1
  C  C40  1  0.50000000  0.40985839  0.08346572  1
  C  C41  1  0.50000000  0.40641095  0.58347440  1
  C  C42  1  0.50000000  0.40817452  0.45824796  1
  C  C43  1  0.50000000  0.40588800  0.95838912  1
  C  C44  1  0.50000000  0.41175018  0.20853548  1
  C  C45  1  0.50000000  0.40726082  0.70847029  1
  C  C46  1  0.50000000  0.41147931  0.33269977  1
  C  C47  1  0.50000000  0.40710456  0.83304738  1
  C  C48  1  0.50000000  0.44114752  0.10380269  1
  C  C49  1  0.50000000  0.43731508  0.60443515  1
  C  C50  1  0.50000000  0.43842184  0.47990146  1
  C  C51  1  0.50000000  0.43746530  0.97865101  1
  C  C52  1  0.50000000  0.44273026  0.22920931  1
  C  C53  1  0.50000000  0.43785903  0.72921028  1
  C  C54  1  0.50000000  0.44192753  0.35443267  1
  C  C55  1  0.50000000  0.43764236  0.85389276  1
  C  C56  1  0.50000000  0.37688793  0.02174029  1
  C  C57  1  0.50000000  0.37515742  0.52050858  1
  C  C58  1  0.50000000  0.38037894  0.39420932  1
  C  C59  1  0.50000000  0.37610441  0.89517264  1
  C  C60  1  0.50000000  0.38077584  0.14728085  1
  C  C61  1  0.50000000  0.37647401  0.64624458  1
  C  C62  1  0.50000000  0.38118607  0.27082021  1
  C  C63  1  0.50000000  0.37683720  0.77059026  1
  C  C64  1  0.50000000  0.40824953  0.04168029  1
  C  C65  1  0.50000000  0.40584080  0.54153137  1
  C  C66  1  0.50000000  0.40984696  0.41645561  1
  C  C67  1  0.50000000  0.40645341  0.91644486  1
  C  C68  1  0.50000000  0.41148336  0.16720596  1
  C  C69  1  0.50000000  0.40708457  0.66686543  1
  C  C70  1  0.50000000  0.41174741  0.29137541  1
  C  C71  1  0.50000000  0.40725763  0.79145190  1
  C  C72  1  0.50000000  0.47116422  0.08232631  1
  C  C73  1  0.50000000  0.46812222  0.58413519  1
  C  C74  1  0.50000000  0.46964167  0.45986707  1
  C  C75  1  0.50000000  0.46801155  0.95730535  1
  C  C76  1  0.50000000  0.47316351  0.20815140  1
  C  C77  1  0.50000000  0.46846337  0.70835183  1
  C  C78  1  0.50000000  0.47277146  0.33412393  1
  C  C79  1  0.50000000  0.46836416  0.83298026  1
  C  C80  1  0.50000000  0.50137167  0.10331311  1
  C  C81  1  0.50000000  0.49894193  0.60497354  1
  C  C82  1  0.50000000  0.49866122  0.48184959  1
  C  C83  1  0.50000000  0.49883168  0.97772213  1
  C  C84  1  0.50000000  0.50289333  0.22994898  1
  C  C85  1  0.50000000  0.49910287  0.72918380  1
  C  C86  1  0.50000000  0.50214278  0.35658195  1
  C  C87  1  0.50000000  0.49904751  0.85350663  1
  C  C88  1  0.50000000  0.43848998  0.02002877  1
  C  C89  1  0.50000000  0.43741763  0.52127492  1
  C  C90  1  0.50000000  0.44113863  0.39613091  1
  C  C91  1  0.50000000  0.43735017  0.89545471  1
  C  C92  1  0.50000000  0.44194687  0.14549732  1
  C  C93  1  0.50000000  0.43762011  0.64600605  1
  C  C94  1  0.50000000  0.44272904  0.27071172  1
  C  C95  1  0.50000000  0.43784733  0.77069839  1
  C  C96  1  0.50000000  0.46968811  0.04006668  1
  C  C97  1  0.50000000  0.46797027  0.54262163  1
  C  C98  1  0.50000000  0.47114867  0.41760312  1
  C  C99  1  0.50000000  0.46814132  0.91577753  1
  C  C100  1  0.50000000  0.47278614  0.16581438  1
  C  C101  1  0.50000000  0.46834817  0.66689719  1
  C  C102  1  0.50000000  0.47315035  0.29178887  1
  C  C103  1  0.50000000  0.46846633  0.79151786  1
  C  C104  1  0.50000000  0.52981049  0.58473000  1
  C  C105  1  0.50000000  0.53022463  0.95661769  1
  C  C106  1  0.50000000  0.52980994  0.70858627  1
  C  C107  1  0.50000000  0.52975097  0.83262423  1
  C  C108  1  0.50000000  0.56054215  0.60555729  1
  C  C109  1  0.50000000  0.56065192  0.97566268  1
  C  C110  1  0.50000000  0.56060420  0.72927663  1
  C  C111  1  0.50000000  0.56055829  0.85300694  1
  C  C112  1  0.50000000  0.49870508  0.01808988  1
  C  C113  1  0.50000000  0.49880399  0.52220872  1
  C  C114  1  0.50000000  0.50135072  0.39662230  1
  C  C115  1  0.50000000  0.49894603  0.89490315  1
  C  C116  1  0.50000000  0.50215033  0.14336275  1
  C  C117  1  0.50000000  0.49904899  0.64637218  1
  C  C118  1  0.50000000  0.50288222  0.27000709  1
  C  C119  1  0.50000000  0.49908754  0.77070036  1
  C  C120  1  0.50000000  0.53021796  0.54326323  1
  C  C121  1  0.50000000  0.52980637  0.91514467  1
  C  C122  1  0.50000000  0.52976720  0.66723378  1
  C  C123  1  0.50000000  0.52980076  0.79125917  1
  C  C124  1  0.50000000  0.59137713  0.58538152  1
  C  C125  1  0.50000000  0.59138983  0.95595118  1
  C  C126  1  0.50000000  0.59139625  0.70877323  1
  C  C127  1  0.50000000  0.59138317  0.83247667  1
  C  C128  1  0.50000000  0.62212830  0.60560873  1
  C  C129  1  0.50000000  0.62162751  0.97610529  1
  C  C130  1  0.50000000  0.62211183  0.72929238  1
  C  C131  1  0.50000000  0.62206532  0.85296221  1
  C  C132  1  0.50000000  0.56064012  0.52420765  1
  C  C133  1  0.50000000  0.56052854  0.89430182  1
  C  C134  1  0.50000000  0.56057527  0.64684271  1
  C  C135  1  0.50000000  0.56059620  0.77056318  1
  C  C136  1  0.50000000  0.59139484  0.54391425  1
  C  C137  1  0.50000000  0.59135924  0.91447999  1
  C  C138  1  0.50000000  0.59141136  0.66735690  1
  C  C139  1  0.50000000  0.59138278  0.79105703  1
  C  C140  1  0.50000000  0.65281889  0.58470561  1
  C  C141  1  0.50000000  0.65240054  0.95671607  1
  C  C142  1  0.50000000  0.65304221  0.70858084  1
  C  C143  1  0.50000000  0.65306161  0.83259295  1
  C  C144  1  0.50000000  0.68392004  0.60462568  1
  C  C145  1  0.50000000  0.68300019  0.97716607  1
  C  C146  1  0.50000000  0.68375732  0.72905757  1
  C  C147  1  0.50000000  0.68378412  0.85324358  1
  C  C148  1  0.50000000  0.62163994  0.52377506  1
  C  C149  1  0.50000000  0.62208903  0.89423538  1
  C  C150  1  0.50000000  0.62210470  0.64687416  1
  C  C151  1  0.50000000  0.62209847  0.77053283  1
  C  C152  1  0.50000000  0.65242389  0.54314012  1
  C  C153  1  0.50000000  0.65276466  0.91515022  1
  C  C154  1  0.50000000  0.65311025  0.66724217  1
  C  C155  1  0.50000000  0.65301644  0.79125795  1
  C  C156  1  0.50000000  0.71352585  0.58291764  1
  C  C157  1  0.50000000  0.71297048  0.95735057  1
  C  C158  1  0.50000000  0.71367594  0.70776500  1
  C  C159  1  0.50000000  0.71365736  0.83197068  1
  C  C160  1  0.50000000  0.68300893  0.52266637  1
  C  C161  1  0.50000000  0.68384562  0.89521739  1
  C  C162  1  0.50000000  0.68385499  0.64661085  1
  C  C163  1  0.50000000  0.68374989  0.77081335  1
  C  C164  1  0.50000000  0.71299441  0.54244418  1
  C  C165  1  0.50000000  0.71346101  0.91688656  1
  C  C166  1  0.50000000  0.71371468  0.66792382  1
  C  C167  1  0.50000000  0.71366152  0.79213362  1
  H  H168  1  0.50000000  0.26053227  0.60404593  1
  H  H169  1  0.50000000  0.25830204  0.96707984  1
  H  H170  1  0.50000000  0.26156305  0.72358852  1
  H  H171  1  0.50000000  0.26126709  0.84540816  1
  H  H172  1  0.50000000  0.25828715  0.53282233  1
  H  H173  1  0.50000000  0.26061101  0.89588771  1
  H  H174  1  0.50000000  0.26120752  0.65458909  1
  H  H175  1  0.50000000  0.26156749  0.77641627  1
  H  H176  1  0.50000000  0.73768719  0.59746544  1
  H  H177  1  0.50000000  0.73653228  0.97327432  1
  H  H178  1  0.50000000  0.73762185  0.72271204  1
  H  H179  1  0.50000000  0.73759350  0.84697070  1
  H  H180  1  0.50000000  0.73651235  0.52643653  1
  H  H181  1  0.50000000  0.73760803  0.90231335  1
  H  H182  1  0.50000000  0.73767704  0.65297357  1
  H  H183  1  0.50000000  0.73764296  0.77725756  1
  H  H184  1  0.50000000  0.30677387  0.00357424  1
  H  H185  1  0.50000000  0.32651373  0.10137803  1
  H  H186  1  0.50000000  0.32353271  0.46344295  1
  H  H187  1  0.50000000  0.32718437  0.22322821  1
  H  H188  1  0.50000000  0.32684022  0.34602878  1
  H  H189  1  0.50000000  0.30690263  0.49635132  1
  H  H190  1  0.50000000  0.32368288  0.03623720  1
  H  H191  1  0.50000000  0.32653027  0.39840934  1
  H  H192  1  0.50000000  0.32684262  0.15382162  1
  H  H193  1  0.50000000  0.32718510  0.27666047  1
  H  H194  1  0.50000000  0.52524889  0.08812123  1
  H  H195  1  0.50000000  0.52240811  0.46670372  1
  H  H196  1  0.50000000  0.52695902  0.21527245  1
  H  H197  1  0.50000000  0.52647722  0.34242091  1
  H  H198  1  0.50000000  0.56189091  0.00716569  1
  H  H199  1  0.50000000  0.52244509  0.03323322  1
  H  H200  1  0.50000000  0.52522420  0.41181488  1
  H  H201  1  0.50000000  0.52646169  0.15754970  1
  H  H202  1  0.50000000  0.52691728  0.28475521  1
  H  H203  1  0.50000000  0.62131886  0.00774697  1
  H  H204  1  0.50000000  0.56186819  0.49270120  1
  H  H205  1  0.50000000  0.68254114  0.00878483  1
  H  H206  1  0.50000000  0.62135511  0.49213582  1
  H  H207  1  0.50000000  0.68256618  0.49104929  1
