# generated using pymatgen
data_HC3
_symmetry_space_group_name_H-M   'P 1'
_cell_length_a   20.00000000
_cell_length_b   40.19450000
_cell_length_c   34.70983035
_cell_angle_alpha   90.00000000
_cell_angle_beta   90.00000000
_cell_angle_gamma   90.00000000
_symmetry_Int_Tables_number   1
_chemical_formula_structural   HC3
_chemical_formula_sum   'H56 C168'
_cell_volume   27902.88552403
_cell_formula_units_Z   56
loop_
 _symmetry_equiv_pos_site_id
 _symmetry_equiv_pos_as_xyz
  1  'x, y, z'
loop_
 _atom_site_type_symbol
 _atom_site_label
 _atom_site_symmetry_multiplicity
 _atom_site_fract_x
 _atom_site_fract_y
 _atom_site_fract_z
 _atom_site_occupancy
  C  C0  1  0.50000000  0.28545419  0.08157712  1
  C  C1  1  0.50000000  0.28543822  0.58276101  1
  C  C2  1  0.50000000  0.28537586  0.45781870  1
  C  C3  1  0.50000000  0.28537792  0.95654706  1
  C  C4  1  0.50000000  0.28563886  0.20701378  1
  C  C5  1  0.50000000  0.28544347  0.70740953  1
  C  C6  1  0.50000000  0.28564608  0.33248935  1
  C  C7  1  0.50000000  0.28547418  0.83203878  1
  C  C8  1  0.50000000  0.31558045  0.10338243  1
  C  C9  1  0.50000000  0.31549724  0.60442349  1
  C  C10  1  0.50000000  0.31531760  0.47978927  1
  C  C11  1  0.50000000  0.31542452  0.97822485  1
  C  C12  1  0.50000000  0.31567622  0.22892436  1
  C  C13  1  0.50000000  0.31533862  0.72897468  1
  C  C14  1  0.50000000  0.31564892  0.35445533  1
  C  C15  1  0.50000000  0.31540605  0.85352986  1
  C  C16  1  0.50000000  0.28535391  0.04191412  1
  C  C17  1  0.50000000  0.28537912  0.54316078  1
  C  C18  1  0.50000000  0.28549144  0.41816304  1
  C  C19  1  0.50000000  0.28544136  0.91693641  1
  C  C20  1  0.50000000  0.28560661  0.16732751  1
  C  C21  1  0.50000000  0.28544390  0.66765529  1
  C  C22  1  0.50000000  0.28566168  0.29281660  1
  C  C23  1  0.50000000  0.28544628  0.79228090  1
  C  C24  1  0.50000000  0.34619542  0.08252875  1
  C  C25  1  0.50000000  0.34602599  0.58390610  1
  C  C26  1  0.50000000  0.34613017  0.45933348  1
  C  C27  1  0.50000000  0.34603647  0.95731632  1
  C  C28  1  0.50000000  0.34629948  0.20809954  1
  C  C29  1  0.50000000  0.34599130  0.70836599  1
  C  C30  1  0.50000000  0.34629102  0.33364627  1
  C  C31  1  0.50000000  0.34604824  0.83279879  1
  C  C32  1  0.50000000  0.37616833  0.10446427  1
  C  C33  1  0.50000000  0.37704032  0.60495411  1
  C  C34  1  0.50000000  0.37588998  0.48122715  1
  C  C35  1  0.50000000  0.37681013  0.97836950  1
  C  C36  1  0.50000000  0.37632092  0.23003516  1
  C  C37  1  0.50000000  0.37679848  0.72926312  1
  C  C38  1  0.50000000  0.37626037  0.35561261  1
  C  C39  1  0.50000000  0.37691730  0.85354285  1
  C  C40  1  0.50000000  0.31529459  0.01994943  1
  C  C41  1  0.50000000  0.31543406  0.52150146  1
  C  C42  1  0.50000000  0.31561884  0.39637621  1
  C  C43  1  0.50000000  0.31549846  0.89530387  1
  C  C44  1  0.50000000  0.31559734  0.14532243  1
  C  C45  1  0.50000000  0.31537797  0.64617690  1
  C  C46  1  0.50000000  0.31567841  0.27087071  1
  C  C47  1  0.50000000  0.31533661  0.77071898  1
  C  C48  1  0.50000000  0.34609669  0.04042692  1
  C  C49  1  0.50000000  0.34604606  0.54241952  1
  C  C50  1  0.50000000  0.34622896  0.41723042  1
  C  C51  1  0.50000000  0.34602337  0.91582955  1
  C  C52  1  0.50000000  0.34623700  0.16613784  1
  C  C53  1  0.50000000  0.34600061  0.66688787  1
  C  C54  1  0.50000000  0.34630911  0.29168508  1
  C  C55  1  0.50000000  0.34598771  0.79135384  1
  C  C56  1  0.50000000  0.40777983  0.58457365  1
  C  C57  1  0.50000000  0.40838344  0.95692519  1
  C  C58  1  0.50000000  0.40746539  0.70858044  1
  C  C59  1  0.50000000  0.40756157  0.83257151  1
  C  C60  1  0.50000000  0.43838790  0.60557612  1
  C  C61  1  0.50000000  0.43890152  0.97553499  1
  C  C62  1  0.50000000  0.43815067  0.72928233  1
  C  C63  1  0.50000000  0.43827192  0.85291283  1
  C  C64  1  0.50000000  0.37584780  0.01852847  1
  C  C65  1  0.50000000  0.37683429  0.52138412  1
  C  C66  1  0.50000000  0.37621552  0.39532659  1
  C  C67  1  0.50000000  0.37704529  0.89479410  1
  C  C68  1  0.50000000  0.37619196  0.14416341  1
  C  C69  1  0.50000000  0.37689773  0.64619792  1
  C  C70  1  0.50000000  0.37631467  0.26973150  1
  C  C71  1  0.50000000  0.37679447  0.77050117  1
  C  C72  1  0.50000000  0.40838743  0.54287461  1
  C  C73  1  0.50000000  0.40777870  0.91521443  1
  C  C74  1  0.50000000  0.40753781  0.66719421  1
  C  C75  1  0.50000000  0.40747282  0.79118238  1
  C  C76  1  0.50000000  0.46935817  0.58566761  1
  C  C77  1  0.50000000  0.46969045  0.95554235  1
  C  C78  1  0.50000000  0.46897984  0.70878202  1
  C  C79  1  0.50000000  0.46903939  0.83217577  1
  C  C80  1  0.50000000  0.50000061  0.60616784  1
  C  C81  1  0.50000000  0.50014789  0.97532673  1
  C  C82  1  0.50000000  0.49971644  0.72931898  1
  C  C83  1  0.50000000  0.49985071  0.85245129  1
  C  C84  1  0.50000000  0.43891956  0.52431668  1
  C  C85  1  0.50000000  0.43839394  0.89422706  1
  C  C86  1  0.50000000  0.43826123  0.64688207  1
  C  C87  1  0.50000000  0.43816116  0.77049951  1
  C  C88  1  0.50000000  0.46969747  0.54431346  1
  C  C89  1  0.50000000  0.46935541  0.91417248  1
  C  C90  1  0.50000000  0.46903721  0.66763205  1
  C  C91  1  0.50000000  0.46898716  0.79102493  1
  C  C92  1  0.50000000  0.53070575  0.58578881  1
  C  C93  1  0.50000000  0.53080767  0.95565284  1
  C  C94  1  0.50000000  0.53050832  0.70894146  1
  C  C95  1  0.50000000  0.53053541  0.83193932  1
  C  C96  1  0.50000000  0.56139391  0.60630266  1
  C  C97  1  0.50000000  0.56166487  0.97522071  1
  C  C98  1  0.50000000  0.56134536  0.72937118  1
  C  C99  1  0.50000000  0.56135852  0.85238978  1
  C  C100  1  0.50000000  0.50016261  0.52456719  1
  C  C101  1  0.50000000  0.49999744  0.89367596  1
  C  C102  1  0.50000000  0.49985993  0.64738180  1
  C  C103  1  0.50000000  0.49971754  0.77049362  1
  C  C104  1  0.50000000  0.53081482  0.54423740  1
  C  C105  1  0.50000000  0.53070147  0.91407568  1
  C  C106  1  0.50000000  0.53055158  0.66788485  1
  C  C107  1  0.50000000  0.53050245  0.79088065  1
  C  C108  1  0.50000000  0.59210651  0.58594723  1
  C  C109  1  0.50000000  0.59196964  0.95534015  1
  C  C110  1  0.50000000  0.59208733  0.70891561  1
  C  C111  1  0.50000000  0.59209370  0.83208407  1
  C  C112  1  0.50000000  0.62288737  0.60599285  1
  C  C113  1  0.50000000  0.62289367  0.97509933  1
  C  C114  1  0.50000000  0.62280012  0.72938428  1
  C  C115  1  0.50000000  0.62284362  0.85263114  1
  C  C116  1  0.50000000  0.56166470  0.52466850  1
  C  C117  1  0.50000000  0.56138703  0.89353697  1
  C  C118  1  0.50000000  0.56137387  0.64743569  1
  C  C119  1  0.50000000  0.56133776  0.77043592  1
  C  C120  1  0.50000000  0.59197557  0.54451558  1
  C  C121  1  0.50000000  0.59210115  0.91388661  1
  C  C122  1  0.50000000  0.59210829  0.66772077  1
  C  C123  1  0.50000000  0.59208316  0.79088740  1
  C  C124  1  0.50000000  0.65376283  0.58525629  1
  C  C125  1  0.50000000  0.65337784  0.95634685  1
  C  C126  1  0.50000000  0.65367087  0.70878718  1
  C  C127  1  0.50000000  0.65362284  0.83219320  1
  C  C128  1  0.50000000  0.68599772  0.10346675  1
  C  C129  1  0.50000000  0.68420969  0.60557295  1
  C  C130  1  0.50000000  0.68645105  0.48249649  1
  C  C131  1  0.50000000  0.68515196  0.97718058  1
  C  C132  1  0.50000000  0.68493119  0.22996422  1
  C  C133  1  0.50000000  0.68437263  0.72918342  1
  C  C134  1  0.50000000  0.68564879  0.35651707  1
  C  C135  1  0.50000000  0.68431663  0.85290394  1
  C  C136  1  0.50000000  0.62289746  0.52475459  1
  C  C137  1  0.50000000  0.62287508  0.89380742  1
  C  C138  1  0.50000000  0.62284405  0.64715149  1
  C  C139  1  0.50000000  0.62279724  0.77041549  1
  C  C140  1  0.50000000  0.65340161  0.54344722  1
  C  C141  1  0.50000000  0.65374432  0.91453726  1
  C  C142  1  0.50000000  0.65362072  0.66758519  1
  C  C143  1  0.50000000  0.65367128  0.79099240  1
  C  C144  1  0.50000000  0.71490183  0.08017452  1
  C  C145  1  0.50000000  0.71474510  0.58418246  1
  C  C146  1  0.50000000  0.71521183  0.45941660  1
  C  C147  1  0.50000000  0.71508116  0.95486475  1
  C  C148  1  0.50000000  0.71396676  0.20670850  1
  C  C149  1  0.50000000  0.71438368  0.70779384  1
  C  C150  1  0.50000000  0.71426611  0.33266631  1
  C  C151  1  0.50000000  0.71437924  0.83153456  1
  C  C152  1  0.50000000  0.68645773  0.01725402  1
  C  C153  1  0.50000000  0.68518275  0.52257995  1
  C  C154  1  0.50000000  0.68597022  0.39625253  1
  C  C155  1  0.50000000  0.68419797  0.89421234  1
  C  C156  1  0.50000000  0.68566527  0.14320790  1
  C  C157  1  0.50000000  0.68431406  0.64686726  1
  C  C158  1  0.50000000  0.68492316  0.26963692  1
  C  C159  1  0.50000000  0.68436676  0.77056956  1
  C  C160  1  0.50000000  0.71523866  0.04027419  1
  C  C161  1  0.50000000  0.71511710  0.54491862  1
  C  C162  1  0.50000000  0.71488273  0.41950362  1
  C  C163  1  0.50000000  0.71473190  0.91560827  1
  C  C164  1  0.50000000  0.71429484  0.16703951  1
  C  C165  1  0.50000000  0.71438797  0.66820509  1
  C  C166  1  0.50000000  0.71393549  0.29299226  1
  C  C167  1  0.50000000  0.71437781  0.79194580  1
  H  H168  1  0.50000000  0.26145221  0.09643518  1
  H  H169  1  0.50000000  0.26143788  0.59755203  1
  H  H170  1  0.50000000  0.26127972  0.47243707  1
  H  H171  1  0.50000000  0.26140779  0.97142228  1
  H  H172  1  0.50000000  0.26161843  0.22185781  1
  H  H173  1  0.50000000  0.26141707  0.72213970  1
  H  H174  1  0.50000000  0.26156161  0.34715556  1
  H  H175  1  0.50000000  0.26146272  0.84681728  1
  H  H176  1  0.50000000  0.26130406  0.02718619  1
  H  H177  1  0.50000000  0.26138140  0.52832735  1
  H  H178  1  0.50000000  0.26145566  0.40339049  1
  H  H179  1  0.50000000  0.26149333  0.90203011  1
  H  H180  1  0.50000000  0.26154523  0.15262075  1
  H  H181  1  0.50000000  0.26143565  0.65286455  1
  H  H182  1  0.50000000  0.26159029  0.27812435  1
  H  H183  1  0.50000000  0.26142989  0.77751792  1
  H  H184  1  0.50000000  0.73914164  0.09460755  1
  H  H185  1  0.50000000  0.73851288  0.59946223  1
  H  H186  1  0.50000000  0.73967924  0.47329681  1
  H  H187  1  0.50000000  0.73902067  0.96980607  1
  H  H188  1  0.50000000  0.73819694  0.22123500  1
  H  H189  1  0.50000000  0.73832818  0.72268174  1
  H  H190  1  0.50000000  0.73870913  0.34668922  1
  H  H191  1  0.50000000  0.73838450  0.84629495  1
  H  H192  1  0.50000000  0.73971375  0.02639276  1
  H  H193  1  0.50000000  0.73909263  0.53004171  1
  H  H194  1  0.50000000  0.73909648  0.40498220  1
  H  H195  1  0.50000000  0.73851511  0.90038123  1
  H  H196  1  0.50000000  0.73874342  0.15306994  1
  H  H197  1  0.50000000  0.73834568  0.65332606  1
  H  H198  1  0.50000000  0.73821507  0.27858518  1
  H  H199  1  0.50000000  0.73835363  0.77712715  1
  H  H200  1  0.50000000  0.40026815  0.08982780  1
  H  H201  1  0.50000000  0.39938000  0.46550905  1
  H  H202  1  0.50000000  0.40036096  0.21525190  1
  H  H203  1  0.50000000  0.40027898  0.34081513  1
  H  H204  1  0.50000000  0.44030694  0.00703053  1
  H  H205  1  0.50000000  0.39936360  0.03416303  1
  H  H206  1  0.50000000  0.40025927  0.41010150  1
  H  H207  1  0.50000000  0.40024518  0.15887513  1
  H  H208  1  0.50000000  0.40036394  0.28447696  1
  H  H209  1  0.50000000  0.50007180  0.00694237  1
  H  H210  1  0.50000000  0.44032772  0.49284503  1
  H  H211  1  0.50000000  0.56189858  0.00684032  1
  H  H212  1  0.50000000  0.50008168  0.49297728  1
  H  H213  1  0.50000000  0.62164855  0.00660653  1
  H  H214  1  0.50000000  0.56186939  0.49307498  1
  H  H215  1  0.50000000  0.66163078  0.08926811  1
  H  H216  1  0.50000000  0.66275518  0.46708072  1
  H  H217  1  0.50000000  0.66064559  0.21552372  1
  H  H218  1  0.50000000  0.66118267  0.34257009  1
  H  H219  1  0.50000000  0.62161558  0.49327485  1
  H  H220  1  0.50000000  0.66281113  0.03277936  1
  H  H221  1  0.50000000  0.66162650  0.41052137  1
  H  H222  1  0.50000000  0.66121594  0.15723968  1
  H  H223  1  0.50000000  0.66057900  0.28390597  1
