# generated using pymatgen
data_H29C84
_symmetry_space_group_name_H-M   'P 1'
_cell_length_a   20.00000000
_cell_length_b   40.19450000
_cell_length_c   35.07165514
_cell_angle_alpha   90.00000000
_cell_angle_beta   90.00000000
_cell_angle_gamma   90.00000000
_symmetry_Int_Tables_number   1
_chemical_formula_structural   H29C84
_chemical_formula_sum   'H58 C168'
_cell_volume   28193.75285318
_cell_formula_units_Z   2
loop_
 _symmetry_equiv_pos_site_id
 _symmetry_equiv_pos_as_xyz
  1  'x, y, z'
loop_
 _atom_site_type_symbol
 _atom_site_label
 _atom_site_symmetry_multiplicity
 _atom_site_fract_x
 _atom_site_fract_y
 _atom_site_fract_z
 _atom_site_occupancy
  C  C0  1  0.50000000  0.27688405  0.07862585  1
  C  C1  1  0.50000000  0.28633017  0.58313211  1
  C  C2  1  0.50000000  0.28122955  0.46067714  1
  C  C3  1  0.50000000  0.28691159  0.95618437  1
  C  C4  1  0.50000000  0.27001224  0.20650795  1
  C  C5  1  0.50000000  0.28532213  0.70757435  1
  C  C6  1  0.50000000  0.27111925  0.33313249  1
  C  C7  1  0.50000000  0.28554839  0.83175733  1
  C  C8  1  0.50000000  0.30398162  0.10430909  1
  C  C9  1  0.50000000  0.31565491  0.60527194  1
  C  C10  1  0.50000000  0.31296794  0.47886019  1
  C  C11  1  0.50000000  0.31616222  0.97829342  1
  C  C12  1  0.50000000  0.29925225  0.22881471  1
  C  C13  1  0.50000000  0.31501597  0.72910484  1
  C  C14  1  0.50000000  0.30144822  0.35340017  1
  C  C15  1  0.50000000  0.31545002  0.85282340  1
  C  C16  1  0.50000000  0.28120927  0.03907240  1
  C  C17  1  0.50000000  0.28693447  0.54340397  1
  C  C18  1  0.50000000  0.27693042  0.42112644  1
  C  C19  1  0.50000000  0.28640239  0.91645900  1
  C  C20  1  0.50000000  0.27112293  0.16663844  1
  C  C21  1  0.50000000  0.28544544  0.66803327  1
  C  C22  1  0.50000000  0.27007213  0.29329483  1
  C  C23  1  0.50000000  0.28534643  0.79224516  1
  C  C24  1  0.50000000  0.33531477  0.08665317  1
  C  C25  1  0.50000000  0.34639225  0.58515348  1
  C  C26  1  0.50000000  0.33955223  0.45230730  1
  C  C27  1  0.50000000  0.34703750  0.95630763  1
  C  C28  1  0.50000000  0.32951902  0.20849570  1
  C  C29  1  0.50000000  0.34577148  0.70878591  1
  C  C30  1  0.50000000  0.33057717  0.33091292  1
  C  C31  1  0.50000000  0.34595957  0.83191353  1
  C  C32  1  0.50000000  0.37698962  0.60661264  1
  C  C33  1  0.50000000  0.37873470  0.97292118  1
  C  C34  1  0.50000000  0.37660378  0.72941304  1
  C  C35  1  0.50000000  0.37685971  0.85210798  1
  C  C36  1  0.50000000  0.31292990  0.02085737  1
  C  C37  1  0.50000000  0.31620885  0.52139726  1
  C  C38  1  0.50000000  0.30402788  0.39546084  1
  C  C39  1  0.50000000  0.31576548  0.89443702  1
  C  C40  1  0.50000000  0.30149097  0.14642154  1
  C  C41  1  0.50000000  0.31534787  0.64692467  1
  C  C42  1  0.50000000  0.29930317  0.27099421  1
  C  C43  1  0.50000000  0.31500035  0.77061898  1
  C  C44  1  0.50000000  0.33952978  0.04741108  1
  C  C45  1  0.50000000  0.34702689  0.54343931  1
  C  C46  1  0.50000000  0.33537818  0.41307983  1
  C  C47  1  0.50000000  0.34646389  0.91459042  1
  C  C48  1  0.50000000  0.33060357  0.16897784  1
  C  C49  1  0.50000000  0.34590091  0.66779083  1
  C  C50  1  0.50000000  0.32956625  0.29140009  1
  C  C51  1  0.50000000  0.34577728  0.79090929  1
  C  C52  1  0.50000000  0.40812298  0.58773729  1
  C  C53  1  0.50000000  0.40875400  0.95272425  1
  C  C54  1  0.50000000  0.40733967  0.70920803  1
  C  C55  1  0.50000000  0.40743765  0.83139090  1
  C  C56  1  0.50000000  0.43873012  0.60800392  1
  C  C57  1  0.50000000  0.43910316  0.97249341  1
  C  C58  1  0.50000000  0.43818592  0.72950180  1
  C  C59  1  0.50000000  0.43849697  0.85105709  1
  C  C60  1  0.50000000  0.37869983  0.52679848  1
  C  C61  1  0.50000000  0.37705078  0.89311070  1
  C  C62  1  0.50000000  0.37680971  0.64760923  1
  C  C63  1  0.50000000  0.37660254  0.77026698  1
  C  C64  1  0.50000000  0.40871758  0.54698215  1
  C  C65  1  0.50000000  0.40818153  0.91197099  1
  C  C66  1  0.50000000  0.40741340  0.66829569  1
  C  C67  1  0.50000000  0.40733995  0.79047333  1
  C  C68  1  0.50000000  0.46938246  0.58782857  1
  C  C69  1  0.50000000  0.46956481  0.95301180  1
  C  C70  1  0.50000000  0.46914735  0.70947000  1
  C  C71  1  0.50000000  0.46923323  0.83080749  1
  C  C72  1  0.50000000  0.50000407  0.60799465  1
  C  C73  1  0.50000000  0.50001453  0.97256220  1
  C  C74  1  0.50000000  0.50001339  0.72952778  1
  C  C75  1  0.50000000  0.50001260  0.85093137  1
  C  C76  1  0.50000000  0.43907228  0.52722308  1
  C  C77  1  0.50000000  0.43876630  0.89167368  1
  C  C78  1  0.50000000  0.43847336  0.64861855  1
  C  C79  1  0.50000000  0.43818392  0.77017348  1
  C  C80  1  0.50000000  0.46955202  0.54665805  1
  C  C81  1  0.50000000  0.46940389  0.91184656  1
  C  C82  1  0.50000000  0.46922128  0.66886348  1
  C  C83  1  0.50000000  0.46914964  0.79019853  1
  C  C84  1  0.50000000  0.53062673  0.58783516  1
  C  C85  1  0.50000000  0.53047014  0.95302616  1
  C  C86  1  0.50000000  0.53087572  0.70946749  1
  C  C87  1  0.50000000  0.53079014  0.83080452  1
  C  C88  1  0.50000000  0.56128102  0.60801939  1
  C  C89  1  0.50000000  0.56093038  0.97251291  1
  C  C90  1  0.50000000  0.56183490  0.72949815  1
  C  C91  1  0.50000000  0.56152548  0.85105039  1
  C  C92  1  0.50000000  0.50000079  0.52707943  1
  C  C93  1  0.50000000  0.50001743  0.89168434  1
  C  C94  1  0.50000000  0.50000720  0.64874297  1
  C  C95  1  0.50000000  0.50000944  0.77013236  1
  C  C96  1  0.50000000  0.53045008  0.54666217  1
  C  C97  1  0.50000000  0.53062815  0.91185415  1
  C  C98  1  0.50000000  0.53079605  0.66886280  1
  C  C99  1  0.50000000  0.53086944  0.79019531  1
  C  C100  1  0.50000000  0.59188486  0.58775203  1
  C  C101  1  0.50000000  0.59127183  0.95273012  1
  C  C102  1  0.50000000  0.59268530  0.70920749  1
  C  C103  1  0.50000000  0.59258275  0.83138523  1
  C  C104  1  0.50000000  0.62303095  0.60661157  1
  C  C105  1  0.50000000  0.62128545  0.97293783  1
  C  C106  1  0.50000000  0.62342374  0.72941025  1
  C  C107  1  0.50000000  0.62315702  0.85210758  1
  C  C108  1  0.50000000  0.56093175  0.52723477  1
  C  C109  1  0.50000000  0.56125953  0.89166978  1
  C  C110  1  0.50000000  0.56154626  0.64862858  1
  C  C111  1  0.50000000  0.56183567  0.77016795  1
  C  C112  1  0.50000000  0.59128847  0.54699940  1
  C  C113  1  0.50000000  0.59184017  0.91197525  1
  C  C114  1  0.50000000  0.59261211  0.66829616  1
  C  C115  1  0.50000000  0.59267647  0.79046976  1
  C  C116  1  0.50000000  0.66468628  0.08665983  1
  C  C117  1  0.50000000  0.65363052  0.58513727  1
  C  C118  1  0.50000000  0.66048617  0.45234039  1
  C  C119  1  0.50000000  0.65298487  0.95632766  1
  C  C120  1  0.50000000  0.67048544  0.20849633  1
  C  C121  1  0.50000000  0.65425528  0.70878333  1
  C  C122  1  0.50000000  0.66942119  0.33091853  1
  C  C123  1  0.50000000  0.65405738  0.83191756  1
  C  C124  1  0.50000000  0.69602112  0.10430907  1
  C  C125  1  0.50000000  0.68437291  0.60525457  1
  C  C126  1  0.50000000  0.68708669  0.47885843  1
  C  C127  1  0.50000000  0.68386394  0.97830945  1
  C  C128  1  0.50000000  0.70075506  0.22881366  1
  C  C129  1  0.50000000  0.68501613  0.72909916  1
  C  C130  1  0.50000000  0.69854585  0.35340887  1
  C  C131  1  0.50000000  0.68456035  0.85283380  1
  C  C132  1  0.50000000  0.62130679  0.52681185  1
  C  C133  1  0.50000000  0.62296878  0.89311642  1
  C  C134  1  0.50000000  0.62321316  0.64761031  1
  C  C135  1  0.50000000  0.62341673  0.77025795  1
  C  C136  1  0.50000000  0.66048506  0.04741695  1
  C  C137  1  0.50000000  0.65299846  0.54342071  1
  C  C138  1  0.50000000  0.66463071  0.41310445  1
  C  C139  1  0.50000000  0.65355515  0.91460772  1
  C  C140  1  0.50000000  0.66938967  0.16897757  1
  C  C141  1  0.50000000  0.65412570  0.66778004  1
  C  C142  1  0.50000000  0.67044368  0.29140305  1
  C  C143  1  0.50000000  0.65424104  0.79091185  1
  C  C144  1  0.50000000  0.72312464  0.07863155  1
  C  C145  1  0.50000000  0.71370665  0.58311843  1
  C  C146  1  0.50000000  0.71882087  0.46066545  1
  C  C147  1  0.50000000  0.71311702  0.95620570  1
  C  C148  1  0.50000000  0.72999019  0.20649912  1
  C  C149  1  0.50000000  0.71471720  0.70757753  1
  C  C150  1  0.50000000  0.72887446  0.33314230  1
  C  C151  1  0.50000000  0.71445387  0.83175539  1
  C  C152  1  0.50000000  0.68708683  0.02087177  1
  C  C153  1  0.50000000  0.68383154  0.52138476  1
  C  C154  1  0.50000000  0.69597330  0.39546979  1
  C  C155  1  0.50000000  0.68425494  0.89445681  1
  C  C156  1  0.50000000  0.69850510  0.14641811  1
  C  C157  1  0.50000000  0.68467707  0.64691135  1
  C  C158  1  0.50000000  0.70070539  0.27099609  1
  C  C159  1  0.50000000  0.68501765  0.77061484  1
  C  C160  1  0.50000000  0.71880466  0.03907833  1
  C  C161  1  0.50000000  0.71311041  0.54339471  1
  C  C162  1  0.50000000  0.72308804  0.42110854  1
  C  C163  1  0.50000000  0.71362485  0.91647859  1
  C  C164  1  0.50000000  0.72887478  0.16663186  1
  C  C165  1  0.50000000  0.71457105  0.66803175  1
  C  C166  1  0.50000000  0.72993070  0.29330381  1
  C  C167  1  0.50000000  0.71466832  0.79224567  1
  H  H168  1  0.50000000  0.25132145  0.08949923  1
  H  H169  1  0.50000000  0.26188383  0.59683850  1
  H  H170  1  0.50000000  0.25837967  0.47760581  1
  H  H171  1  0.50000000  0.26268574  0.97033364  1
  H  H172  1  0.50000000  0.24558843  0.22041541  1
  H  H173  1  0.50000000  0.26133586  0.72228550  1
  H  H174  1  0.50000000  0.24743678  0.34853926  1
  H  H175  1  0.50000000  0.26156352  0.84650231  1
  H  H176  1  0.50000000  0.25838964  0.02209379  1
  H  H177  1  0.50000000  0.26283559  0.52897179  1
  H  H178  1  0.50000000  0.25138870  0.41022534  1
  H  H179  1  0.50000000  0.26204744  0.90252915  1
  H  H180  1  0.50000000  0.24757077  0.15094173  1
  H  H181  1  0.50000000  0.26153083  0.65310433  1
  H  H182  1  0.50000000  0.24557318  0.27958302  1
  H  H183  1  0.50000000  0.26115837  0.77799832  1
  H  H184  1  0.50000000  0.74868349  0.08951001  1
  H  H185  1  0.50000000  0.73815674  0.59682284  1
  H  H186  1  0.50000000  0.74168397  0.47757159  1
  H  H187  1  0.50000000  0.73734402  0.97036131  1
  H  H188  1  0.50000000  0.75441595  0.22040186  1
  H  H189  1  0.50000000  0.73870860  0.72229065  1
  H  H190  1  0.50000000  0.75255574  0.34854773  1
  H  H191  1  0.50000000  0.73843745  0.84649601  1
  H  H192  1  0.50000000  0.74161586  0.02209359  1
  H  H193  1  0.50000000  0.73722648  0.52899488  1
  H  H194  1  0.50000000  0.74861178  0.41015440  1
  H  H195  1  0.50000000  0.73798218  0.90255638  1
  H  H196  1  0.50000000  0.75243409  0.15094692  1
  H  H197  1  0.50000000  0.73847846  0.65308446  1
  H  H198  1  0.50000000  0.75442690  0.27958897  1
  H  H199  1  0.50000000  0.73886474  0.77801247  1
  H  H200  1  0.50000000  0.35807494  0.10368024  1
  H  H201  1  0.50000000  0.36544532  0.46051206  1
  H  H202  1  0.50000000  0.35324716  0.22372523  1
  H  H203  1  0.50000000  0.35510694  0.34436032  1
  H  H204  1  0.50000000  0.38211682  0.00335197  1
  H  H205  1  0.50000000  0.36540466  0.03911547  1
  H  H206  1  0.50000000  0.35827074  0.39628024  1
  H  H207  1  0.50000000  0.35523056  0.15578491  1
  H  H208  1  0.50000000  0.35340619  0.27642080  1
  H  H209  1  0.50000000  0.43902109  0.00376831  1
  H  H210  1  0.50000000  0.38195657  0.49635836  1
  H  H211  1  0.50000000  0.50000453  0.00380127  1
  H  H212  1  0.50000000  0.43898125  0.49595418  1
  H  H213  1  0.50000000  0.56103673  0.00379009  1
  H  H214  1  0.50000000  0.49999039  0.49582072  1
  H  H215  1  0.50000000  0.61788194  0.00336668  1
  H  H216  1  0.50000000  0.56100639  0.49596618  1
  H  H217  1  0.50000000  0.64191567  0.10367134  1
  H  H218  1  0.50000000  0.63460944  0.46059203  1
  H  H219  1  0.50000000  0.64676095  0.22373370  1
  H  H220  1  0.50000000  0.64489445  0.34437376  1
  H  H221  1  0.50000000  0.61800052  0.49638052  1
  H  H222  1  0.50000000  0.63461738  0.03910454  1
  H  H223  1  0.50000000  0.64172107  0.39633399  1
  H  H224  1  0.50000000  0.64475745  0.15578879  1
  H  H225  1  0.50000000  0.64660716  0.27642394  1
