# generated using pymatgen
data_H5C21
_symmetry_space_group_name_H-M   'P 1'
_cell_length_a   20.00000000
_cell_length_b   40.19450000
_cell_length_c   34.66986520
_cell_angle_alpha   90.00000000
_cell_angle_beta   90.00000000
_cell_angle_gamma   90.00000000
_symmetry_Int_Tables_number   1
_chemical_formula_structural   H5C21
_chemical_formula_sum   'H40 C168'
_cell_volume   27870.75793862
_cell_formula_units_Z   8
loop_
 _symmetry_equiv_pos_site_id
 _symmetry_equiv_pos_as_xyz
  1  'x, y, z'
loop_
 _atom_site_type_symbol
 _atom_site_label
 _atom_site_symmetry_multiplicity
 _atom_site_fract_x
 _atom_site_fract_y
 _atom_site_fract_z
 _atom_site_occupancy
  C  C0  1  0.50000000  0.28357459  0.58539635  1
  C  C1  1  0.50000000  0.28358654  0.95488070  1
  C  C2  1  0.50000000  0.28464388  0.70880751  1
  C  C3  1  0.50000000  0.28431228  0.83069265  1
  C  C4  1  0.50000000  0.31342020  0.60657575  1
  C  C5  1  0.50000000  0.31349885  0.97472663  1
  C  C6  1  0.50000000  0.31487467  0.72930140  1
  C  C7  1  0.50000000  0.31414078  0.85188044  1
  C  C8  1  0.50000000  0.28352246  0.54503763  1
  C  C9  1  0.50000000  0.28364073  0.91453015  1
  C  C10  1  0.50000000  0.28427514  0.66926150  1
  C  C11  1  0.50000000  0.28466004  0.79115230  1
  C  C12  1  0.50000000  0.34428665  0.58667546  1
  C  C13  1  0.50000000  0.34389965  0.95402680  1
  C  C14  1  0.50000000  0.34548151  0.70886026  1
  C  C15  1  0.50000000  0.34522820  0.83223531  1
  C  C16  1  0.50000000  0.37579253  0.60571992  1
  C  C17  1  0.50000000  0.37413816  0.97391327  1
  C  C18  1  0.50000000  0.37639099  0.72937526  1
  C  C19  1  0.50000000  0.37610543  0.85301151  1
  C  C20  1  0.50000000  0.31345496  0.52523027  1
  C  C21  1  0.50000000  0.31346692  0.89334791  1
  C  C22  1  0.50000000  0.31410259  0.64805084  1
  C  C23  1  0.50000000  0.31488278  0.77065453  1
  C  C24  1  0.50000000  0.34384566  0.54592575  1
  C  C25  1  0.50000000  0.34431507  0.91327702  1
  C  C26  1  0.50000000  0.34519951  0.66770002  1
  C  C27  1  0.50000000  0.34549649  0.79107536  1
  C  C28  1  0.50000000  0.41204187  0.08636057  1
  C  C29  1  0.50000000  0.40637229  0.58432043  1
  C  C30  1  0.50000000  0.41059063  0.45293970  1
  C  C31  1  0.50000000  0.40582825  0.95754158  1
  C  C32  1  0.50000000  0.41319704  0.20840025  1
  C  C33  1  0.50000000  0.40696622  0.70866638  1
  C  C34  1  0.50000000  0.41300808  0.33115520  1
  C  C35  1  0.50000000  0.40681817  0.83274679  1
  C  C36  1  0.50000000  0.44233922  0.10604041  1
  C  C37  1  0.50000000  0.43723650  0.60465833  1
  C  C38  1  0.50000000  0.43860279  0.47791855  1
  C  C39  1  0.50000000  0.43704115  0.97974442  1
  C  C40  1  0.50000000  0.44337941  0.22914650  1
  C  C41  1  0.50000000  0.43761646  0.72927377  1
  C  C42  1  0.50000000  0.44291498  0.35240933  1
  C  C43  1  0.50000000  0.43739364  0.85375070  1
  C  C44  1  0.50000000  0.37412825  0.52605547  1
  C  C45  1  0.50000000  0.37580741  0.89423479  1
  C  C46  1  0.50000000  0.37608343  0.64693824  1
  C  C47  1  0.50000000  0.37639209  0.77053930  1
  C  C48  1  0.50000000  0.41055159  0.04697407  1
  C  C49  1  0.50000000  0.40584028  0.54242587  1
  C  C50  1  0.50000000  0.41212829  0.41356202  1
  C  C51  1  0.50000000  0.40636734  0.91564746  1
  C  C52  1  0.50000000  0.41293317  0.16879301  1
  C  C53  1  0.50000000  0.40681118  0.66717781  1
  C  C54  1  0.50000000  0.41325027  0.29156096  1
  C  C55  1  0.50000000  0.40696448  0.79125232  1
  C  C56  1  0.50000000  0.47172667  0.08367103  1
  C  C57  1  0.50000000  0.46780355  0.58336088  1
  C  C58  1  0.50000000  0.47001531  0.45801566  1
  C  C59  1  0.50000000  0.46754366  0.95852999  1
  C  C60  1  0.50000000  0.47393691  0.20861884  1
  C  C61  1  0.50000000  0.46823052  0.70838019  1
  C  C62  1  0.50000000  0.47364781  0.33257696  1
  C  C63  1  0.50000000  0.46811567  0.83303641  1
  C  C64  1  0.50000000  0.50305749  0.10389093  1
  C  C65  1  0.50000000  0.49854823  0.60439882  1
  C  C66  1  0.50000000  0.50017458  0.47975706  1
  C  C67  1  0.50000000  0.49903800  0.97877451  1
  C  C68  1  0.50000000  0.50493790  0.22921787  1
  C  C69  1  0.50000000  0.49882340  0.72917869  1
  C  C70  1  0.50000000  0.50406362  0.35432773  1
  C  C71  1  0.50000000  0.49870494  0.85387324  1
  C  C72  1  0.50000000  0.43857901  0.02200911  1
  C  C73  1  0.50000000  0.43702464  0.52019291  1
  C  C74  1  0.50000000  0.44242590  0.39389424  1
  C  C75  1  0.50000000  0.43721633  0.89527862  1
  C  C76  1  0.50000000  0.44284248  0.14753038  1
  C  C77  1  0.50000000  0.43739400  0.64618000  1
  C  C78  1  0.50000000  0.44340562  0.27078045  1
  C  C79  1  0.50000000  0.43761769  0.77065204  1
  C  C80  1  0.50000000  0.46995845  0.04191766  1
  C  C81  1  0.50000000  0.46756989  0.54138167  1
  C  C82  1  0.50000000  0.47181301  0.41625320  1
  C  C83  1  0.50000000  0.46777606  0.91656631  1
  C  C84  1  0.50000000  0.47360069  0.16734051  1
  C  C85  1  0.50000000  0.46811850  0.66689105  1
  C  C86  1  0.50000000  0.47395554  0.29131598  1
  C  C87  1  0.50000000  0.46822569  0.79155551  1
  C  C88  1  0.50000000  0.53298329  0.08229485  1
  C  C89  1  0.50000000  0.52942166  0.58409936  1
  C  C90  1  0.50000000  0.53139467  0.45980626  1
  C  C91  1  0.50000000  0.52946127  0.95730715  1
  C  C92  1  0.50000000  0.53535025  0.20812043  1
  C  C93  1  0.50000000  0.52942564  0.70840504  1
  C  C94  1  0.50000000  0.53494724  0.33409633  1
  C  C95  1  0.50000000  0.52938367  0.83299869  1
  C  C96  1  0.50000000  0.56324193  0.10317051  1
  C  C97  1  0.50000000  0.56021644  0.60495779  1
  C  C98  1  0.50000000  0.56032802  0.48189010  1
  C  C99  1  0.50000000  0.56030904  0.97771612  1
  C  C100  1  0.50000000  0.56507605  0.22993380  1
  C  C101  1  0.50000000  0.56013836  0.72925820  1
  C  C102  1  0.50000000  0.56425542  0.35669484  1
  C  C103  1  0.50000000  0.56017122  0.85361494  1
  C  C104  1  0.50000000  0.50010748  0.02015663  1
  C  C105  1  0.50000000  0.49910396  0.52113873  1
  C  C106  1  0.50000000  0.50313558  0.39599259  1
  C  C107  1  0.50000000  0.49852566  0.89553266  1
  C  C108  1  0.50000000  0.50399671  0.14555495  1
  C  C109  1  0.50000000  0.49871087  0.64606240  1
  C  C110  1  0.50000000  0.50494682  0.27069832  1
  C  C111  1  0.50000000  0.49881898  0.77075202  1
  C  C112  1  0.50000000  0.53132793  0.04008806  1
  C  C113  1  0.50000000  0.52950632  0.54261409  1
  C  C114  1  0.50000000  0.53307827  0.41758969  1
  C  C115  1  0.50000000  0.52938776  0.91582656  1
  C  C116  1  0.50000000  0.53488254  0.16579230  1
  C  C117  1  0.50000000  0.52939168  0.66693416  1
  C  C118  1  0.50000000  0.53536505  0.29177901  1
  C  C119  1  0.50000000  0.52941720  0.79152692  1
  C  C120  1  0.50000000  0.59124071  0.58470669  1
  C  C121  1  0.50000000  0.59168153  0.95665155  1
  C  C122  1  0.50000000  0.59086128  0.70863858  1
  C  C123  1  0.50000000  0.59091105  0.83280882  1
  C  C124  1  0.50000000  0.62187701  0.60545886  1
  C  C125  1  0.50000000  0.62210254  0.97572408  1
  C  C126  1  0.50000000  0.62149768  0.72933104  1
  C  C127  1  0.50000000  0.62160344  0.85319672  1
  C  C128  1  0.50000000  0.56027766  0.01801685  1
  C  C129  1  0.50000000  0.56036453  0.52220579  1
  C  C130  1  0.50000000  0.56335269  0.39672490  1
  C  C131  1  0.50000000  0.56017160  0.89495637  1
  C  C132  1  0.50000000  0.56417226  0.14319329  1
  C  C133  1  0.50000000  0.56019137  0.64630927  1
  C  C134  1  0.50000000  0.56508743  0.26998014  1
  C  C135  1  0.50000000  0.56012483  0.77067293  1
  C  C136  1  0.50000000  0.59173736  0.54326199  1
  C  C137  1  0.50000000  0.59118415  0.91521475  1
  C  C138  1  0.50000000  0.59093223  0.66711944  1
  C  C139  1  0.50000000  0.59084334  0.79129196  1
  C  C140  1  0.50000000  0.65285335  0.58517998  1
  C  C141  1  0.50000000  0.65279844  0.95605012  1
  C  C142  1  0.50000000  0.65239765  0.70866024  1
  C  C143  1  0.50000000  0.65252645  0.83261900  1
  C  C144  1  0.50000000  0.68379471  0.60528181  1
  C  C145  1  0.50000000  0.68329622  0.97646937  1
  C  C146  1  0.50000000  0.68304234  0.72918150  1
  C  C147  1  0.50000000  0.68338755  0.85289270  1
  C  C148  1  0.50000000  0.62215780  0.52418619  1
  C  C149  1  0.50000000  0.62181782  0.89448470  1
  C  C150  1  0.50000000  0.62163934  0.64675263  1
  C  C151  1  0.50000000  0.62147622  0.77061242  1
  C  C152  1  0.50000000  0.65283985  0.54389632  1
  C  C153  1  0.50000000  0.65278587  0.91477548  1
  C  C154  1  0.50000000  0.65256765  0.66733779  1
  C  C155  1  0.50000000  0.65237394  0.79131434  1
  C  C156  1  0.50000000  0.71352160  0.58382304  1
  C  C157  1  0.50000000  0.71322991  0.95656620  1
  C  C158  1  0.50000000  0.71303789  0.70815625  1
  C  C159  1  0.50000000  0.71320033  0.83161339  1
  C  C160  1  0.50000000  0.68335484  0.52352720  1
  C  C161  1  0.50000000  0.68373897  0.89469589  1
  C  C162  1  0.50000000  0.68343936  0.64708927  1
  C  C163  1  0.50000000  0.68304293  0.77082802  1
  C  C164  1  0.50000000  0.71328236  0.54342295  1
  C  C165  1  0.50000000  0.71343865  0.91617669  1
  C  C166  1  0.50000000  0.71324959  0.66842079  1
  C  C167  1  0.50000000  0.71305158  0.79187371  1
  H  H168  1  0.50000000  0.25971760  0.60049825  1
  H  H169  1  0.50000000  0.25987924  0.97040700  1
  H  H170  1  0.50000000  0.26091712  0.72403943  1
  H  H171  1  0.50000000  0.26028138  0.84534264  1
  H  H172  1  0.50000000  0.25983574  0.52944731  1
  H  H173  1  0.50000000  0.25975924  0.89949723  1
  H  H174  1  0.50000000  0.26021890  0.65464660  1
  H  H175  1  0.50000000  0.26092784  0.77593554  1
  H  H176  1  0.50000000  0.73758886  0.59851195  1
  H  H177  1  0.50000000  0.73691153  0.97222493  1
  H  H178  1  0.50000000  0.73684243  0.72330564  1
  H  H179  1  0.50000000  0.73717162  0.84647141  1
  H  H180  1  0.50000000  0.73685867  0.52754491  1
  H  H181  1  0.50000000  0.73753236  0.90154511  1
  H  H182  1  0.50000000  0.73728816  0.65369723  1
  H  H183  1  0.50000000  0.73688553  0.77677711  1
  H  H184  1  0.50000000  0.31411466  0.00635604  1
  H  H185  1  0.50000000  0.36972240  0.00424645  1
  H  H186  1  0.50000000  0.31412102  0.49360443  1
  H  H187  1  0.50000000  0.38845281  0.10192783  1
  H  H188  1  0.50000000  0.38533414  0.46256281  1
  H  H189  1  0.50000000  0.38933702  0.22345242  1
  H  H190  1  0.50000000  0.38894313  0.34569732  1
  H  H191  1  0.50000000  0.36977624  0.49570283  1
  H  H192  1  0.50000000  0.38530679  0.03733170  1
  H  H193  1  0.50000000  0.38856953  0.39795111  1
  H  H194  1  0.50000000  0.38889439  0.15418412  1
  H  H195  1  0.50000000  0.38934466  0.27660290  1
  H  H196  1  0.50000000  0.58703369  0.08782593  1
  H  H197  1  0.50000000  0.58404574  0.46671176  1
  H  H198  1  0.50000000  0.58913118  0.21525734  1
  H  H199  1  0.50000000  0.58862735  0.34266134  1
  H  H200  1  0.50000000  0.62335418  0.00721950  1
  H  H201  1  0.50000000  0.58403002  0.03312142  1
  H  H202  1  0.50000000  0.58716688  0.41205561  1
  H  H203  1  0.50000000  0.58857357  0.15715156  1
  H  H204  1  0.50000000  0.58914599  0.28468319  1
  H  H205  1  0.50000000  0.68285668  0.00807230  1
  H  H206  1  0.50000000  0.62343113  0.49268787  1
  H  H207  1  0.50000000  0.68295903  0.49193069  1
