# generated using pymatgen
data_H5C21
_symmetry_space_group_name_H-M   'P 1'
_cell_length_a   20.00000000
_cell_length_b   40.19450000
_cell_length_c   34.45166814
_cell_angle_alpha   90.00000000
_cell_angle_beta   90.00000000
_cell_angle_gamma   90.00000000
_symmetry_Int_Tables_number   1
_chemical_formula_structural   H5C21
_chemical_formula_sum   'H40 C168'
_cell_volume   27695.35149779
_cell_formula_units_Z   8
loop_
 _symmetry_equiv_pos_site_id
 _symmetry_equiv_pos_as_xyz
  1  'x, y, z'
loop_
 _atom_site_type_symbol
 _atom_site_label
 _atom_site_symmetry_multiplicity
 _atom_site_fract_x
 _atom_site_fract_y
 _atom_site_fract_z
 _atom_site_occupancy
  C  C0  1  0.50000000  0.28556990  0.08227557  1
  C  C1  1  0.50000000  0.28566036  0.58279017  1
  C  C2  1  0.50000000  0.28551518  0.45760580  1
  C  C3  1  0.50000000  0.28552110  0.95711606  1
  C  C4  1  0.50000000  0.28571069  0.20739399  1
  C  C5  1  0.50000000  0.28592026  0.70760917  1
  C  C6  1  0.50000000  0.28571692  0.33248585  1
  C  C7  1  0.50000000  0.28590280  0.83231842  1
  C  C8  1  0.50000000  0.31557450  0.10368799  1
  C  C9  1  0.50000000  0.31566573  0.60418484  1
  C  C10  1  0.50000000  0.31541703  0.47917674  1
  C  C11  1  0.50000000  0.31544966  0.97864426  1
  C  C12  1  0.50000000  0.31563037  0.22884533  1
  C  C13  1  0.50000000  0.31587156  0.72901216  1
  C  C14  1  0.50000000  0.31561437  0.35399043  1
  C  C15  1  0.50000000  0.31580137  0.85374074  1
  C  C16  1  0.50000000  0.28548938  0.04224262  1
  C  C17  1  0.50000000  0.28555457  0.54278710  1
  C  C18  1  0.50000000  0.28560961  0.41757913  1
  C  C19  1  0.50000000  0.28563677  0.91709916  1
  C  C20  1  0.50000000  0.28569186  0.16732460  1
  C  C21  1  0.50000000  0.28589478  0.66759101  1
  C  C22  1  0.50000000  0.28571341  0.29241946  1
  C  C23  1  0.50000000  0.28594858  0.79230194  1
  C  C24  1  0.50000000  0.34610605  0.08298091  1
  C  C25  1  0.50000000  0.34626059  0.58347735  1
  C  C26  1  0.50000000  0.34603579  0.45850268  1
  C  C27  1  0.50000000  0.34611181  0.95797438  1
  C  C28  1  0.50000000  0.34620964  0.20812392  1
  C  C29  1  0.50000000  0.34655863  0.70837052  1
  C  C30  1  0.50000000  0.34622422  0.33333370  1
  C  C31  1  0.50000000  0.34653707  0.83316318  1
  C  C32  1  0.50000000  0.37710631  0.10384395  1
  C  C33  1  0.50000000  0.37723688  0.60434819  1
  C  C34  1  0.50000000  0.37683050  0.47954915  1
  C  C35  1  0.50000000  0.37701885  0.97884778  1
  C  C36  1  0.50000000  0.37712266  0.22907326  1
  C  C37  1  0.50000000  0.37742809  0.72921168  1
  C  C38  1  0.50000000  0.37712956  0.35431970  1
  C  C39  1  0.50000000  0.37735762  0.85401619  1
  C  C40  1  0.50000000  0.31540978  0.02069469  1
  C  C41  1  0.50000000  0.31546537  0.52124103  1
  C  C42  1  0.50000000  0.31558914  0.39612551  1
  C  C43  1  0.50000000  0.31565610  0.89571232  1
  C  C44  1  0.50000000  0.31559531  0.14582090  1
  C  C45  1  0.50000000  0.31579076  0.64616347  1
  C  C46  1  0.50000000  0.31563193  0.27096837  1
  C  C47  1  0.50000000  0.31590830  0.77095142  1
  C  C48  1  0.50000000  0.34604296  0.04134356  1
  C  C49  1  0.50000000  0.34611222  0.54190821  1
  C  C50  1  0.50000000  0.34611720  0.41684875  1
  C  C51  1  0.50000000  0.34626392  0.91640710  1
  C  C52  1  0.50000000  0.34620032  0.16648299  1
  C  C53  1  0.50000000  0.34651057  0.66676128  1
  C  C54  1  0.50000000  0.34621590  0.29168601  1
  C  C55  1  0.50000000  0.34660018  0.79156833  1
  C  C56  1  0.50000000  0.40766994  0.08304868  1
  C  C57  1  0.50000000  0.40776019  0.58367094  1
  C  C58  1  0.50000000  0.40759252  0.45899914  1
  C  C59  1  0.50000000  0.40766892  0.95792264  1
  C  C60  1  0.50000000  0.40767351  0.20834847  1
  C  C61  1  0.50000000  0.40805446  0.70841257  1
  C  C62  1  0.50000000  0.40770633  0.33358819  1
  C  C63  1  0.50000000  0.40803247  0.83321490  1
  C  C64  1  0.50000000  0.43751082  0.10458151  1
  C  C65  1  0.50000000  0.43863495  0.60441410  1
  C  C66  1  0.50000000  0.43719563  0.48038964  1
  C  C67  1  0.50000000  0.43822173  0.97886714  1
  C  C68  1  0.50000000  0.43754902  0.22983416  1
  C  C69  1  0.50000000  0.43876729  0.72917757  1
  C  C70  1  0.50000000  0.43758513  0.35508770  1
  C  C71  1  0.50000000  0.43875476  0.85389116  1
  C  C72  1  0.50000000  0.37685070  0.02030279  1
  C  C73  1  0.50000000  0.37700011  0.52101130  1
  C  C74  1  0.50000000  0.37712845  0.39598804  1
  C  C75  1  0.50000000  0.37725789  0.89553981  1
  C  C76  1  0.50000000  0.37710703  0.14548939  1
  C  C77  1  0.50000000  0.37732248  0.64588507  1
  C  C78  1  0.50000000  0.37712865  0.27072714  1
  C  C79  1  0.50000000  0.37745238  0.77071368  1
  C  C80  1  0.50000000  0.40761623  0.04077099  1
  C  C81  1  0.50000000  0.40762681  0.54193285  1
  C  C82  1  0.50000000  0.40769891  0.41668324  1
  C  C83  1  0.50000000  0.40779489  0.91619037  1
  C  C84  1  0.50000000  0.40768986  0.16619847  1
  C  C85  1  0.50000000  0.40799626  0.66667515  1
  C  C86  1  0.50000000  0.40769771  0.29143412  1
  C  C87  1  0.50000000  0.40808439  0.79149050  1
  C  C88  1  0.50000000  0.46940795  0.58381137  1
  C  C89  1  0.50000000  0.46978602  0.95778131  1
  C  C90  1  0.50000000  0.46954860  0.70842566  1
  C  C91  1  0.50000000  0.46955485  0.83294904  1
  C  C92  1  0.50000000  0.50016129  0.60472862  1
  C  C93  1  0.50000000  0.50018076  0.97695651  1
  C  C94  1  0.50000000  0.50032343  0.72913534  1
  C  C95  1  0.50000000  0.50029245  0.85349101  1
  C  C96  1  0.50000000  0.43721713  0.01944465  1
  C  C97  1  0.50000000  0.43816847  0.52097206  1
  C  C98  1  0.50000000  0.43755602  0.39518565  1
  C  C99  1  0.50000000  0.43868311  0.89544354  1
  C  C100  1  0.50000000  0.43754648  0.14467378  1
  C  C101  1  0.50000000  0.43870285  0.64597456  1
  C  C102  1  0.50000000  0.43756613  0.26990240  1
  C  C103  1  0.50000000  0.43878551  0.77071599  1
  C  C104  1  0.50000000  0.46971657  0.54205460  1
  C  C105  1  0.50000000  0.46947391  0.91602302  1
  C  C106  1  0.50000000  0.46949971  0.66691813  1
  C  C107  1  0.50000000  0.46957710  0.79144643  1
  C  C108  1  0.50000000  0.53089562  0.58444979  1
  C  C109  1  0.50000000  0.53100102  0.95711470  1
  C  C110  1  0.50000000  0.53106557  0.70852045  1
  C  C111  1  0.50000000  0.53107869  0.83282240  1
  C  C112  1  0.50000000  0.56171911  0.60495618  1
  C  C113  1  0.50000000  0.56132706  0.97724567  1
  C  C114  1  0.50000000  0.56193164  0.72919392  1
  C  C115  1  0.50000000  0.56189725  0.85341701  1
  C  C116  1  0.50000000  0.50008702  0.52281850  1
  C  C117  1  0.50000000  0.50023760  0.89511402  1
  C  C118  1  0.50000000  0.50022513  0.64636050  1
  C  C119  1  0.50000000  0.50033934  0.77072345  1
  C  C120  1  0.50000000  0.53089016  0.54269245  1
  C  C121  1  0.50000000  0.53099263  0.91536853  1
  C  C122  1  0.50000000  0.53101615  0.66702592  1
  C  C123  1  0.50000000  0.53109211  0.79132710  1
  C  C124  1  0.50000000  0.59230040  0.58414851  1
  C  C125  1  0.50000000  0.59212515  0.95765211  1
  C  C126  1  0.50000000  0.59272331  0.70855675  1
  C  C127  1  0.50000000  0.59275611  0.83294058  1
  C  C128  1  0.50000000  0.62308553  0.60444963  1
  C  C129  1  0.50000000  0.62249757  0.97786393  1
  C  C130  1  0.50000000  0.62344208  0.72914892  1
  C  C131  1  0.50000000  0.62333732  0.85376877  1
  C  C132  1  0.50000000  0.56120009  0.52254484  1
  C  C133  1  0.50000000  0.56182502  0.89488187  1
  C  C134  1  0.50000000  0.56182246  0.64642701  1
  C  C135  1  0.50000000  0.56195134  0.77065344  1
  C  C136  1  0.50000000  0.59198627  0.54216575  1
  C  C137  1  0.50000000  0.59242591  0.91567350  1
  C  C138  1  0.50000000  0.59268261  0.66690120  1
  C  C139  1  0.50000000  0.59275861  0.79128291  1
  C  C140  1  0.50000000  0.65371835  0.58329545  1
  C  C141  1  0.50000000  0.65327626  0.95839987  1
  C  C142  1  0.50000000  0.65431404  0.70821807  1
  C  C143  1  0.50000000  0.65435398  0.83326210  1
  C  C144  1  0.50000000  0.68483878  0.60326632  1
  C  C145  1  0.50000000  0.68378182  0.97920590  1
  C  C146  1  0.50000000  0.68503839  0.72883821  1
  C  C147  1  0.50000000  0.68502925  0.85420657  1
  C  C148  1  0.50000000  0.62233967  0.52193536  1
  C  C149  1  0.50000000  0.62321661  0.89537100  1
  C  C150  1  0.50000000  0.62323894  0.64605204  1
  C  C151  1  0.50000000  0.62346637  0.77068037  1
  C  C152  1  0.50000000  0.65311439  0.54141191  1
  C  C153  1  0.50000000  0.65387328  0.91651145  1
  C  C154  1  0.50000000  0.65426282  0.66654056  1
  C  C155  1  0.50000000  0.65436152  0.79158463  1
  C  C156  1  0.50000000  0.71433865  0.58118761  1
  C  C157  1  0.50000000  0.71381765  0.95940900  1
  C  C158  1  0.50000000  0.71484392  0.70718371  1
  C  C159  1  0.50000000  0.71485905  0.83270358  1
  C  C160  1  0.50000000  0.68363519  0.52066128  1
  C  C161  1  0.50000000  0.68499979  0.89654276  1
  C  C162  1  0.50000000  0.68491498  0.64558404  1
  C  C163  1  0.50000000  0.68507002  0.77093168  1
  C  C164  1  0.50000000  0.71366659  0.54045752  1
  C  C165  1  0.50000000  0.71448751  0.91867365  1
  C  C166  1  0.50000000  0.71476984  0.66704608  1
  C  C167  1  0.50000000  0.71489817  0.79256463  1
  H  H168  1  0.50000000  0.26165316  0.09738105  1
  H  H169  1  0.50000000  0.26173224  0.59784188  1
  H  H170  1  0.50000000  0.26147570  0.47240725  1
  H  H171  1  0.50000000  0.26152257  0.97205563  1
  H  H172  1  0.50000000  0.26171405  0.22232224  1
  H  H173  1  0.50000000  0.26193421  0.72253650  1
  H  H174  1  0.50000000  0.26170383  0.34735170  1
  H  H175  1  0.50000000  0.26193574  0.84728719  1
  H  H176  1  0.50000000  0.26154440  0.02721958  1
  H  H177  1  0.50000000  0.26156039  0.52787861  1
  H  H178  1  0.50000000  0.26162423  0.40264659  1
  H  H179  1  0.50000000  0.26170761  0.90201677  1
  H  H180  1  0.50000000  0.26166931  0.15245826  1
  H  H181  1  0.50000000  0.26191087  0.65266686  1
  H  H182  1  0.50000000  0.26170280  0.27752159  1
  H  H183  1  0.50000000  0.26198560  0.77733125  1
  H  H184  1  0.50000000  0.73854733  0.59567010  1
  H  H185  1  0.50000000  0.73734254  0.97553105  1
  H  H186  1  0.50000000  0.73883601  0.72210972  1
  H  H187  1  0.50000000  0.73880721  0.84774868  1
  H  H188  1  0.50000000  0.73715759  0.52429293  1
  H  H189  1  0.50000000  0.73874511  0.90432119  1
  H  H190  1  0.50000000  0.73869988  0.65195843  1
  H  H191  1  0.50000000  0.73891472  0.77769339  1
  H  H192  1  0.50000000  0.46149177  0.08965931  1
  H  H193  1  0.50000000  0.46069008  0.46463853  1
  H  H194  1  0.50000000  0.46148249  0.21483482  1
  H  H195  1  0.50000000  0.46153044  0.34008885  1
  H  H196  1  0.50000000  0.50121944  0.00866719  1
  H  H197  1  0.50000000  0.46070649  0.03515555  1
  H  H198  1  0.50000000  0.46154657  0.41011741  1
  H  H199  1  0.50000000  0.46152589  0.15958014  1
  H  H200  1  0.50000000  0.46153970  0.28481948  1
  H  H201  1  0.50000000  0.56117096  0.00907954  1
  H  H202  1  0.50000000  0.50112472  0.49107963  1
  H  H203  1  0.50000000  0.62217610  0.00970157  1
  H  H204  1  0.50000000  0.56106047  0.49069246  1
  H  H205  1  0.50000000  0.68310482  0.01103556  1
  H  H206  1  0.50000000  0.62195668  0.49009852  1
  H  H207  1  0.50000000  0.68299461  0.48884608  1
