# generated using pymatgen
data_H5C21
_symmetry_space_group_name_H-M   'P 1'
_cell_length_a   20.00000000
_cell_length_b   40.19450000
_cell_length_c   34.66947434
_cell_angle_alpha   90.00000000
_cell_angle_beta   90.00000000
_cell_angle_gamma   90.00000000
_symmetry_Int_Tables_number   1
_chemical_formula_structural   H5C21
_chemical_formula_sum   'H40 C168'
_cell_volume   27870.44372375
_cell_formula_units_Z   8
loop_
 _symmetry_equiv_pos_site_id
 _symmetry_equiv_pos_as_xyz
  1  'x, y, z'
loop_
 _atom_site_type_symbol
 _atom_site_label
 _atom_site_symmetry_multiplicity
 _atom_site_fract_x
 _atom_site_fract_y
 _atom_site_fract_z
 _atom_site_occupancy
  C  C0  1  0.50000000  0.28688478  0.58382379  1
  C  C1  1  0.50000000  0.28651867  0.95565634  1
  C  C2  1  0.50000000  0.28773213  0.70776369  1
  C  C3  1  0.50000000  0.28766233  0.83186814  1
  C  C4  1  0.50000000  0.31275281  0.10296138  1
  C  C5  1  0.50000000  0.31732707  0.60484438  1
  C  C6  1  0.50000000  0.31572365  0.48226415  1
  C  C7  1  0.50000000  0.31665313  0.97710216  1
  C  C8  1  0.50000000  0.31079525  0.22993816  1
  C  C9  1  0.50000000  0.31769605  0.72907760  1
  C  C10  1  0.50000000  0.31168294  0.35687370  1
  C  C11  1  0.50000000  0.31754566  0.85339380  1
  C  C12  1  0.50000000  0.28644752  0.54430705  1
  C  C13  1  0.50000000  0.28691130  0.91612139  1
  C  C14  1  0.50000000  0.28767116  0.66803403  1
  C  C15  1  0.50000000  0.28771412  0.79213028  1
  C  C16  1  0.50000000  0.34302343  0.08215278  1
  C  C17  1  0.50000000  0.34788332  0.58421363  1
  C  C18  1  0.50000000  0.34451333  0.46005694  1
  C  C19  1  0.50000000  0.34773992  0.95700621  1
  C  C20  1  0.50000000  0.34049974  0.20805912  1
  C  C21  1  0.50000000  0.34830765  0.70841082  1
  C  C22  1  0.50000000  0.34095019  0.33426227  1
  C  C23  1  0.50000000  0.34833931  0.83299103  1
  C  C24  1  0.50000000  0.37293444  0.10377357  1
  C  C25  1  0.50000000  0.37904757  0.60456738  1
  C  C26  1  0.50000000  0.37614777  0.47992120  1
  C  C27  1  0.50000000  0.37795818  0.97866074  1
  C  C28  1  0.50000000  0.37090970  0.22921892  1
  C  C29  1  0.50000000  0.37905753  0.72925488  1
  C  C30  1  0.50000000  0.37185942  0.35447133  1
  C  C31  1  0.50000000  0.37910489  0.85388610  1
  C  C32  1  0.50000000  0.31584099  0.01766342  1
  C  C33  1  0.50000000  0.31655420  0.52282264  1
  C  C34  1  0.50000000  0.31263343  0.39694049  1
  C  C35  1  0.50000000  0.31734342  0.89505914  1
  C  C36  1  0.50000000  0.31175352  0.14302091  1
  C  C37  1  0.50000000  0.31753895  0.64650261  1
  C  C38  1  0.50000000  0.31078979  0.27002440  1
  C  C39  1  0.50000000  0.31768570  0.77080739  1
  C  C40  1  0.50000000  0.34463485  0.03985516  1
  C  C41  1  0.50000000  0.34766270  0.54288908  1
  C  C42  1  0.50000000  0.34290516  0.41776069  1
  C  C43  1  0.50000000  0.34791588  0.91567308  1
  C  C44  1  0.50000000  0.34099912  0.16568378  1
  C  C45  1  0.50000000  0.34832342  0.66690497  1
  C  C46  1  0.50000000  0.34049162  0.29189355  1
  C  C47  1  0.50000000  0.34830266  0.79149112  1
  C  C48  1  0.50000000  0.40437559  0.08365168  1
  C  C49  1  0.50000000  0.40950319  0.58343518  1
  C  C50  1  0.50000000  0.40623598  0.45810306  1
  C  C51  1  0.50000000  0.40958189  0.95849452  1
  C  C52  1  0.50000000  0.40193575  0.20864770  1
  C  C53  1  0.50000000  0.40962071  0.70842841  1
  C  C54  1  0.50000000  0.40223929  0.33262413  1
  C  C55  1  0.50000000  0.40966988  0.83299254  1
  C  C56  1  0.50000000  0.43365290  0.10612906  1
  C  C57  1  0.50000000  0.44019849  0.60457547  1
  C  C58  1  0.50000000  0.43781907  0.47784505  1
  C  C59  1  0.50000000  0.43990169  0.97979984  1
  C  C60  1  0.50000000  0.43248595  0.22919984  1
  C  C61  1  0.50000000  0.44022423  0.72923513  1
  C  C62  1  0.50000000  0.43300707  0.35235089  1
  C  C63  1  0.50000000  0.44027078  0.85367416  1
  C  C64  1  0.50000000  0.37626469  0.01999763  1
  C  C65  1  0.50000000  0.37786672  0.52122694  1
  C  C66  1  0.50000000  0.37283469  0.39616671  1
  C  C67  1  0.50000000  0.37907397  0.89531061  1
  C  C68  1  0.50000000  0.37191950  0.14547349  1
  C  C69  1  0.50000000  0.37909010  0.64598816  1
  C  C70  1  0.50000000  0.37090161  0.27073983  1
  C  C71  1  0.50000000  0.37905019  0.77064148  1
  C  C72  1  0.50000000  0.40635089  0.04185801  1
  C  C73  1  0.50000000  0.40949876  0.54137732  1
  C  C74  1  0.50000000  0.40425809  0.41631326  1
  C  C75  1  0.50000000  0.40955165  0.91642552  1
  C  C76  1  0.50000000  0.40229553  0.16735405  1
  C  C77  1  0.50000000  0.40966215  0.66686980  1
  C  C78  1  0.50000000  0.40191298  0.29133343  1
  C  C79  1  0.50000000  0.40961826  0.79144025  1
  C  C80  1  0.50000000  0.46404854  0.08661883  1
  C  C81  1  0.50000000  0.47086481  0.58419338  1
  C  C82  1  0.50000000  0.46568696  0.45269352  1
  C  C83  1  0.50000000  0.47125953  0.95759325  1
  C  C84  1  0.50000000  0.46269349  0.20853818  1
  C  C85  1  0.50000000  0.47092651  0.70854590  1
  C  C86  1  0.50000000  0.46292541  0.33109764  1
  C  C87  1  0.50000000  0.47092577  0.83260008  1
  C  C88  1  0.50000000  0.50159675  0.60560244  1
  C  C89  1  0.50000000  0.50285749  0.97409120  1
  C  C90  1  0.50000000  0.50166795  0.72924875  1
  C  C91  1  0.50000000  0.50165628  0.85289879  1
  C  C92  1  0.50000000  0.43792876  0.02211137  1
  C  C93  1  0.50000000  0.43981917  0.52012292  1
  C  C94  1  0.50000000  0.43353580  0.39384693  1
  C  C95  1  0.50000000  0.44023058  0.89526047  1
  C  C96  1  0.50000000  0.43307837  0.14764178  1
  C  C97  1  0.50000000  0.44025346  0.64616488  1
  C  C98  1  0.50000000  0.43247915  0.27081570  1
  C  C99  1  0.50000000  0.44022687  0.77063233  1
  C  C100  1  0.50000000  0.46580692  0.04726995  1
  C  C101  1  0.50000000  0.47117822  0.54232324  1
  C  C102  1  0.50000000  0.46391705  0.41336493  1
  C  C103  1  0.50000000  0.47090868  0.91568444  1
  C  C104  1  0.50000000  0.46296997  0.16893898  1
  C  C105  1  0.50000000  0.47090287  0.66724206  1
  C  C106  1  0.50000000  0.46267585  0.29149844  1
  C  C107  1  0.50000000  0.47093937  0.79130183  1
  C  C108  1  0.50000000  0.53276042  0.58652623  1
  C  C109  1  0.50000000  0.53318969  0.95426392  1
  C  C110  1  0.50000000  0.53243398  0.70883472  1
  C  C111  1  0.50000000  0.53245878  0.83219777  1
  C  C112  1  0.50000000  0.56354837  0.60657910  1
  C  C113  1  0.50000000  0.56326161  0.97485295  1
  C  C114  1  0.50000000  0.56333372  0.72935741  1
  C  C115  1  0.50000000  0.56348258  0.85227167  1
  C  C116  1  0.50000000  0.50276202  0.52578552  1
  C  C117  1  0.50000000  0.50164426  0.89425797  1
  C  C118  1  0.50000000  0.50162719  0.64694989  1
  C  C119  1  0.50000000  0.50167373  0.77058887  1
  C  C120  1  0.50000000  0.53311386  0.54557819  1
  C  C121  1  0.50000000  0.53282171  0.91331572  1
  C  C122  1  0.50000000  0.53243829  0.66764056  1
  C  C123  1  0.50000000  0.53244401  0.79099916  1
  C  C124  1  0.50000000  0.59412391  0.58579015  1
  C  C125  1  0.50000000  0.59408848  0.95570260  1
  C  C126  1  0.50000000  0.59420803  0.70902155  1
  C  C127  1  0.50000000  0.59431797  0.83205574  1
  C  C128  1  0.50000000  0.62485750  0.60585387  1
  C  C129  1  0.50000000  0.62447930  0.97581894  1
  C  C130  1  0.50000000  0.62491515  0.72935963  1
  C  C131  1  0.50000000  0.62490287  0.85271492  1
  C  C132  1  0.50000000  0.56318298  0.52497728  1
  C  C133  1  0.50000000  0.56360836  0.89326060  1
  C  C134  1  0.50000000  0.56345415  0.64756665  1
  C  C135  1  0.50000000  0.56334166  0.77047990  1
  C  C136  1  0.50000000  0.59401394  0.54412539  1
  C  C137  1  0.50000000  0.59419719  0.91403655  1
  C  C138  1  0.50000000  0.59429093  0.66777681  1
  C  C139  1  0.50000000  0.59421906  0.79081348  1
  C  C140  1  0.50000000  0.65556648  0.58493480  1
  C  C141  1  0.50000000  0.65523853  0.95642269  1
  C  C142  1  0.50000000  0.65577603  0.70862457  1
  C  C143  1  0.50000000  0.65590117  0.83243479  1
  C  C144  1  0.50000000  0.68661189  0.60480582  1
  C  C145  1  0.50000000  0.68590591  0.97677702  1
  C  C146  1  0.50000000  0.68644645  0.72906472  1
  C  C147  1  0.50000000  0.68661930  0.85303103  1
  C  C148  1  0.50000000  0.62439039  0.52399087  1
  C  C149  1  0.50000000  0.62492672  0.89395799  1
  C  C150  1  0.50000000  0.62485971  0.64709529  1
  C  C151  1  0.50000000  0.62492217  0.77046337  1
  C  C152  1  0.50000000  0.65514034  0.54338150  1
  C  C153  1  0.50000000  0.65564536  0.91486365  1
  C  C154  1  0.50000000  0.65585797  0.66735875  1
  C  C155  1  0.50000000  0.65579908  0.79117434  1
  C  C156  1  0.50000000  0.71627760  0.58320689  1
  C  C157  1  0.50000000  0.71588309  0.95697797  1
  C  C158  1  0.50000000  0.71634502  0.70785864  1
  C  C159  1  0.50000000  0.71645833  0.83170946  1
  C  C160  1  0.50000000  0.68578727  0.52300870  1
  C  C161  1  0.50000000  0.68667920  0.89496713  1
  C  C162  1  0.50000000  0.68655883  0.64674204  1
  C  C163  1  0.50000000  0.68646531  0.77071640  1
  C  C164  1  0.50000000  0.71577489  0.54277789  1
  C  C165  1  0.50000000  0.71635339  0.91655164  1
  C  C166  1  0.50000000  0.71639669  0.66805151  1
  C  C167  1  0.50000000  0.71638432  0.79189935  1
  H  H168  1  0.50000000  0.26312987  0.59909397  1
  H  H169  1  0.50000000  0.26283887  0.97134637  1
  H  H170  1  0.50000000  0.26380541  0.72268787  1
  H  H171  1  0.50000000  0.26370573  0.84672617  1
  H  H172  1  0.50000000  0.26270098  0.52874118  1
  H  H173  1  0.50000000  0.26318598  0.90078076  1
  H  H174  1  0.50000000  0.26372550  0.65318674  1
  H  H175  1  0.50000000  0.26378605  0.77718813  1
  H  H176  1  0.50000000  0.74032590  0.59795292  1
  H  H177  1  0.50000000  0.73939462  0.97298174  1
  H  H178  1  0.50000000  0.74024830  0.72283818  1
  H  H179  1  0.50000000  0.74043745  0.84656365  1
  H  H180  1  0.50000000  0.73926094  0.52673485  1
  H  H181  1  0.50000000  0.74041063  0.90182464  1
  H  H182  1  0.50000000  0.74036337  0.65318506  1
  H  H183  1  0.50000000  0.74028358  0.77689712  1
  H  H184  1  0.50000000  0.28900111  0.08754049  1
  H  H185  1  0.50000000  0.29113410  0.46868720  1
  H  H186  1  0.50000000  0.28673931  0.21522976  1
  H  H187  1  0.50000000  0.28732082  0.34279500  1
  H  H188  1  0.50000000  0.29127061  0.03130205  1
  H  H189  1  0.50000000  0.28889049  0.41238973  1
  H  H190  1  0.50000000  0.28733486  0.15697758  1
  H  H191  1  0.50000000  0.28673749  0.28475609  1
  H  H192  1  0.50000000  0.48750572  0.10240064  1
  H  H193  1  0.50000000  0.49094512  0.46229147  1
  H  H194  1  0.50000000  0.48654238  0.22363541  1
  H  H195  1  0.50000000  0.48702944  0.34554694  1
  H  H196  1  0.50000000  0.50690451  0.00450477  1
  H  H197  1  0.50000000  0.49107739  0.03769505  1
  H  H198  1  0.50000000  0.48736701  0.39758040  1
  H  H199  1  0.50000000  0.48706100  0.15447542  1
  H  H200  1  0.50000000  0.48656909  0.27648924  1
  H  H201  1  0.50000000  0.56274500  0.00650314  1
  H  H202  1  0.50000000  0.50681586  0.49537307  1
  H  H203  1  0.50000000  0.62417916  0.00745492  1
  H  H204  1  0.50000000  0.56264127  0.49332543  1
  H  H205  1  0.50000000  0.68556513  0.00836893  1
  H  H206  1  0.50000000  0.62412339  0.49236111  1
  H  H207  1  0.50000000  0.68542610  0.49141738  1
