# generated using pymatgen
data_H19C88
_symmetry_space_group_name_H-M   'P 1'
_cell_length_a   20.00000000
_cell_length_b   40.19450000
_cell_length_c   34.38245647
_cell_angle_alpha   90.00000000
_cell_angle_beta   90.00000000
_cell_angle_gamma   90.00000000
_symmetry_Int_Tables_number   1
_chemical_formula_structural   H19C88
_chemical_formula_sum   'H38 C176'
_cell_volume   27639.71293390
_cell_formula_units_Z   2
loop_
 _symmetry_equiv_pos_site_id
 _symmetry_equiv_pos_as_xyz
  1  'x, y, z'
loop_
 _atom_site_type_symbol
 _atom_site_label
 _atom_site_symmetry_multiplicity
 _atom_site_fract_x
 _atom_site_fract_y
 _atom_site_fract_z
 _atom_site_occupancy
  C  C0  1  0.50000000  0.28522836  0.58212190  1
  C  C1  1  0.50000000  0.28531175  0.95772779  1
  C  C2  1  0.50000000  0.28554939  0.70735229  1
  C  C3  1  0.50000000  0.28548518  0.83248257  1
  C  C4  1  0.50000000  0.31598135  0.10500080  1
  C  C5  1  0.50000000  0.31545148  0.60403292  1
  C  C6  1  0.50000000  0.31613639  0.48023388  1
  C  C7  1  0.50000000  0.31581556  0.97892870  1
  C  C8  1  0.50000000  0.31614368  0.22999934  1
  C  C9  1  0.50000000  0.31566805  0.72904870  1
  C  C10  1  0.50000000  0.31611137  0.35495655  1
  C  C11  1  0.50000000  0.31554540  0.85421765  1
  C  C12  1  0.50000000  0.28528874  0.54227306  1
  C  C13  1  0.50000000  0.28520152  0.91787738  1
  C  C14  1  0.50000000  0.28551613  0.66745137  1
  C  C15  1  0.50000000  0.28553186  0.79257076  1
  C  C16  1  0.50000000  0.34592658  0.08328212  1
  C  C17  1  0.50000000  0.34630735  0.58358761  1
  C  C18  1  0.50000000  0.34579777  0.45883945  1
  C  C19  1  0.50000000  0.34652900  0.95788462  1
  C  C20  1  0.50000000  0.34617671  0.20841049  1
  C  C21  1  0.50000000  0.34636931  0.70833509  1
  C  C22  1  0.50000000  0.34615068  0.33349150  1
  C  C23  1  0.50000000  0.34633531  0.83335966  1
  C  C24  1  0.50000000  0.37663252  0.10388232  1
  C  C25  1  0.50000000  0.37714979  0.60445059  1
  C  C26  1  0.50000000  0.37674969  0.47946324  1
  C  C27  1  0.50000000  0.37701382  0.97888369  1
  C  C28  1  0.50000000  0.37684022  0.22910685  1
  C  C29  1  0.50000000  0.37725046  0.72924612  1
  C  C30  1  0.50000000  0.37674972  0.35426497  1
  C  C31  1  0.50000000  0.37720309  0.85406853  1
  C  C32  1  0.50000000  0.31614204  0.01965474  1
  C  C33  1  0.50000000  0.31577305  0.52098571  1
  C  C34  1  0.50000000  0.31598898  0.39497721  1
  C  C35  1  0.50000000  0.31542040  0.89592331  1
  C  C36  1  0.50000000  0.31609676  0.14504030  1
  C  C37  1  0.50000000  0.31558128  0.64573151  1
  C  C38  1  0.50000000  0.31614292  0.26997085  1
  C  C39  1  0.50000000  0.31565505  0.77087954  1
  C  C40  1  0.50000000  0.34578974  0.04109915  1
  C  C41  1  0.50000000  0.34649810  0.54202329  1
  C  C42  1  0.50000000  0.34592749  0.41668245  1
  C  C43  1  0.50000000  0.34631435  0.91632714  1
  C  C44  1  0.50000000  0.34614674  0.16647010  1
  C  C45  1  0.50000000  0.34636299  0.66659011  1
  C  C46  1  0.50000000  0.34617793  0.29155716  1
  C  C47  1  0.50000000  0.34634621  0.79161211  1
  C  C48  1  0.50000000  0.40752207  0.08292986  1
  C  C49  1  0.50000000  0.40786100  0.58344175  1
  C  C50  1  0.50000000  0.40744542  0.45844464  1
  C  C51  1  0.50000000  0.40780660  0.95789506  1
  C  C52  1  0.50000000  0.40763198  0.20806272  1
  C  C53  1  0.50000000  0.40807062  0.70838809  1
  C  C54  1  0.50000000  0.40758647  0.33330635  1
  C  C55  1  0.50000000  0.40808074  0.83316408  1
  C  C56  1  0.50000000  0.43834535  0.10382701  1
  C  C57  1  0.50000000  0.43871461  0.60429071  1
  C  C58  1  0.50000000  0.43814761  0.47945067  1
  C  C59  1  0.50000000  0.43844952  0.97880455  1
  C  C60  1  0.50000000  0.43842910  0.22906388  1
  C  C61  1  0.50000000  0.43881474  0.72913146  1
  C  C62  1  0.50000000  0.43839377  0.35424796  1
  C  C63  1  0.50000000  0.43874589  0.85391173  1
  C  C64  1  0.50000000  0.37675034  0.02045414  1
  C  C65  1  0.50000000  0.37699016  0.52103524  1
  C  C66  1  0.50000000  0.37663795  0.39603940  1
  C  C67  1  0.50000000  0.37717095  0.89546590  1
  C  C68  1  0.50000000  0.37673956  0.14566762  1
  C  C69  1  0.50000000  0.37720524  0.64584855  1
  C  C70  1  0.50000000  0.37683661  0.27085879  1
  C  C71  1  0.50000000  0.37724122  0.77071104  1
  C  C72  1  0.50000000  0.40745698  0.04145539  1
  C  C73  1  0.50000000  0.40777632  0.54201335  1
  C  C74  1  0.50000000  0.40753051  0.41696865  1
  C  C75  1  0.50000000  0.40789775  0.91645896  1
  C  C76  1  0.50000000  0.40757121  0.16662841  1
  C  C77  1  0.50000000  0.40807028  0.66676367  1
  C  C78  1  0.50000000  0.40764250  0.29185814  1
  C  C79  1  0.50000000  0.40807671  0.79154123  1
  C  C80  1  0.50000000  0.46904352  0.08307165  1
  C  C81  1  0.50000000  0.46926237  0.58351522  1
  C  C82  1  0.50000000  0.46889060  0.45887151  1
  C  C83  1  0.50000000  0.46914469  0.95787838  1
  C  C84  1  0.50000000  0.46907317  0.20835510  1
  C  C85  1  0.50000000  0.46957768  0.70830984  1
  C  C86  1  0.50000000  0.46903179  0.33349320  1
  C  C87  1  0.50000000  0.46957824  0.83312392  1
  C  C88  1  0.50000000  0.49906607  0.10476625  1
  C  C89  1  0.50000000  0.50034611  0.60439497  1
  C  C90  1  0.50000000  0.49863689  0.48040362  1
  C  C91  1  0.50000000  0.49975486  0.97912963  1
  C  C92  1  0.50000000  0.49916203  0.22994350  1
  C  C93  1  0.50000000  0.50040373  0.72915713  1
  C  C94  1  0.50000000  0.49904800  0.35516355  1
  C  C95  1  0.50000000  0.50038588  0.85392384  1
  C  C96  1  0.50000000  0.43817366  0.02044291  1
  C  C97  1  0.50000000  0.43840376  0.52109064  1
  C  C98  1  0.50000000  0.43836138  0.39607019  1
  C  C99  1  0.50000000  0.43875996  0.89561550  1
  C  C100  1  0.50000000  0.43837088  0.14565897  1
  C  C101  1  0.50000000  0.43871794  0.64599586  1
  C  C102  1  0.50000000  0.43843471  0.27084313  1
  C  C103  1  0.50000000  0.43881972  0.77079055  1
  C  C104  1  0.50000000  0.46891498  0.04103961  1
  C  C105  1  0.50000000  0.46908133  0.54202423  1
  C  C106  1  0.50000000  0.46905248  0.41684882  1
  C  C107  1  0.50000000  0.46932522  0.91637956  1
  C  C108  1  0.50000000  0.46900626  0.16640219  1
  C  C109  1  0.50000000  0.46954366  0.66679488  1
  C  C110  1  0.50000000  0.46909269  0.29154971  1
  C  C111  1  0.50000000  0.46959127  0.79160940  1
  C  C112  1  0.50000000  0.53093994  0.58381660  1
  C  C113  1  0.50000000  0.53137850  0.95806965  1
  C  C114  1  0.50000000  0.53109332  0.70846280  1
  C  C115  1  0.50000000  0.53114371  0.83308273  1
  C  C116  1  0.50000000  0.56176181  0.60459780  1
  C  C117  1  0.50000000  0.56161225  0.97728615  1
  C  C118  1  0.50000000  0.56194122  0.72918991  1
  C  C119  1  0.50000000  0.56189511  0.85372386  1
  C  C120  1  0.50000000  0.49868424  0.01950853  1
  C  C121  1  0.50000000  0.49967209  0.52078607  1
  C  C122  1  0.50000000  0.49907515  0.39514542  1
  C  C123  1  0.50000000  0.50041630  0.89550681  1
  C  C124  1  0.50000000  0.49904718  0.14474413  1
  C  C125  1  0.50000000  0.50033234  0.64598014  1
  C  C126  1  0.50000000  0.49916686  0.26990889  1
  C  C127  1  0.50000000  0.50041914  0.77078065  1
  C  C128  1  0.50000000  0.53127520  0.54184423  1
  C  C129  1  0.50000000  0.53102560  0.91608017  1
  C  C130  1  0.50000000  0.53108760  0.66682800  1
  C  C131  1  0.50000000  0.53112323  0.79145528  1
  C  C132  1  0.50000000  0.59252798  0.58410808  1
  C  C133  1  0.50000000  0.59256840  0.95757018  1
  C  C134  1  0.50000000  0.59272919  0.70848987  1
  C  C135  1  0.50000000  0.59279917  0.83313533  1
  C  C136  1  0.50000000  0.62329240  0.60438668  1
  C  C137  1  0.50000000  0.62265517  0.97796315  1
  C  C138  1  0.50000000  0.62342417  0.72913902  1
  C  C139  1  0.50000000  0.62341336  0.85382682  1
  C  C140  1  0.50000000  0.56148598  0.52259408  1
  C  C141  1  0.50000000  0.56185263  0.89528623  1
  C  C142  1  0.50000000  0.56182028  0.64615999  1
  C  C143  1  0.50000000  0.56195913  0.77072435  1
  C  C144  1  0.50000000  0.59240758  0.54230949  1
  C  C145  1  0.50000000  0.59264541  0.91575321  1
  C  C146  1  0.50000000  0.59272860  0.66675240  1
  C  C147  1  0.50000000  0.59276539  0.79140644  1
  C  C148  1  0.50000000  0.65387392  0.58316315  1
  C  C149  1  0.50000000  0.65353825  0.95851370  1
  C  C150  1  0.50000000  0.65431504  0.70820407  1
  C  C151  1  0.50000000  0.65443755  0.83333826  1
  C  C152  1  0.50000000  0.68501389  0.60317175  1
  C  C153  1  0.50000000  0.68399780  0.97932819  1
  C  C154  1  0.50000000  0.68504436  0.72883178  1
  C  C155  1  0.50000000  0.68513851  0.85424601  1
  C  C156  1  0.50000000  0.62244400  0.52186204  1
  C  C157  1  0.50000000  0.62341196  0.89545464  1
  C  C158  1  0.50000000  0.62332216  0.64601833  1
  C  C159  1  0.50000000  0.62345306  0.77075089  1
  C  C160  1  0.50000000  0.65333436  0.54127260  1
  C  C161  1  0.50000000  0.65403847  0.91662378  1
  C  C162  1  0.50000000  0.65434029  0.66650772  1
  C  C163  1  0.50000000  0.65437624  0.79163855  1
  C  C164  1  0.50000000  0.71447960  0.58109885  1
  C  C165  1  0.50000000  0.71404424  0.95952557  1
  C  C166  1  0.50000000  0.71486120  0.70722993  1
  C  C167  1  0.50000000  0.71494744  0.83271978  1
  C  C168  1  0.50000000  0.68378764  0.52047903  1
  C  C169  1  0.50000000  0.68518708  0.89662955  1
  C  C170  1  0.50000000  0.68501936  0.64555579  1
  C  C171  1  0.50000000  0.68508121  0.77097169  1
  C  C172  1  0.50000000  0.71382945  0.54029556  1
  C  C173  1  0.50000000  0.71466027  0.91871519  1
  C  C174  1  0.50000000  0.71484626  0.66704753  1
  C  C175  1  0.50000000  0.71492803  0.79252522  1
  H  H176  1  0.50000000  0.26128491  0.59719291  1
  H  H177  1  0.50000000  0.26179437  0.97391661  1
  H  H178  1  0.50000000  0.26156892  0.72233201  1
  H  H179  1  0.50000000  0.26151282  0.84748332  1
  H  H180  1  0.50000000  0.26168300  0.52626369  1
  H  H181  1  0.50000000  0.26120742  0.90292557  1
  H  H182  1  0.50000000  0.26153613  0.65247328  1
  H  H183  1  0.50000000  0.26157660  0.77753426  1
  H  H184  1  0.50000000  0.73868542  0.59558842  1
  H  H185  1  0.50000000  0.73756748  0.97570279  1
  H  H186  1  0.50000000  0.73885925  0.72214426  1
  H  H187  1  0.50000000  0.73893505  0.84768650  1
  H  H188  1  0.50000000  0.73731550  0.52408032  1
  H  H189  1  0.50000000  0.73888423  0.90427247  1
  H  H190  1  0.50000000  0.73883557  0.65207630  1
  H  H191  1  0.50000000  0.73888937  0.77753759  1
  H  H192  1  0.50000000  0.29191200  0.09019902  1
  H  H193  1  0.50000000  0.29204783  0.46545548  1
  H  H194  1  0.50000000  0.29224468  0.21486052  1
  H  H195  1  0.50000000  0.29225199  0.33975223  1
  H  H196  1  0.50000000  0.29204229  0.03441239  1
  H  H197  1  0.50000000  0.29193266  0.40983085  1
  H  H198  1  0.50000000  0.29224492  0.16027043  1
  H  H199  1  0.50000000  0.29223597  0.28508876  1
  H  H200  1  0.50000000  0.52310572  0.08994066  1
  H  H201  1  0.50000000  0.52207530  0.46454385  1
  H  H202  1  0.50000000  0.52306009  0.21479646  1
  H  H203  1  0.50000000  0.52293874  0.33999563  1
  H  H204  1  0.50000000  0.56260433  0.00906150  1
  H  H205  1  0.50000000  0.52213167  0.03535952  1
  H  H206  1  0.50000000  0.52313202  0.41000112  1
  H  H207  1  0.50000000  0.52293341  0.15989465  1
  H  H208  1  0.50000000  0.52306888  0.28503762  1
  H  H209  1  0.50000000  0.62224166  0.00987525  1
  H  H210  1  0.50000000  0.56250815  0.49082471  1
  H  H211  1  0.50000000  0.68329791  0.01121163  1
  H  H212  1  0.50000000  0.62190920  0.48996435  1
  H  H213  1  0.50000000  0.68313288  0.48860703  1
