# generated using pymatgen
data_H7C22
_symmetry_space_group_name_H-M   'P 1'
_cell_length_a   20.00000000
_cell_length_b   40.19450000
_cell_length_c   34.87289475
_cell_angle_alpha   90.00000000
_cell_angle_beta   90.00000000
_cell_angle_gamma   90.00000000
_symmetry_Int_Tables_number   1
_chemical_formula_structural   H7C22
_chemical_formula_sum   'H56 C176'
_cell_volume   28033.97136260
_cell_formula_units_Z   8
loop_
 _symmetry_equiv_pos_site_id
 _symmetry_equiv_pos_as_xyz
  1  'x, y, z'
loop_
 _atom_site_type_symbol
 _atom_site_label
 _atom_site_symmetry_multiplicity
 _atom_site_fract_x
 _atom_site_fract_y
 _atom_site_fract_z
 _atom_site_occupancy
  C  C0  1  0.50000000  0.28386666  0.08084134  1
  C  C1  1  0.50000000  0.28671657  0.58222524  1
  C  C2  1  0.50000000  0.28518538  0.45848287  1
  C  C3  1  0.50000000  0.28685213  0.95692527  1
  C  C4  1  0.50000000  0.28203076  0.20669769  1
  C  C5  1  0.50000000  0.28607108  0.70697251  1
  C  C6  1  0.50000000  0.28235073  0.33279317  1
  C  C7  1  0.50000000  0.28627638  0.83248291  1
  C  C8  1  0.50000000  0.31313335  0.10371853  1
  C  C9  1  0.50000000  0.31674381  0.60384123  1
  C  C10  1  0.50000000  0.31565792  0.47945726  1
  C  C11  1  0.50000000  0.31671586  0.97882302  1
  C  C12  1  0.50000000  0.31162020  0.22913579  1
  C  C13  1  0.50000000  0.31576307  0.72893022  1
  C  C14  1  0.50000000  0.31241222  0.35440422  1
  C  C15  1  0.50000000  0.31625635  0.85402604  1
  C  C16  1  0.50000000  0.28515808  0.04130255  1
  C  C17  1  0.50000000  0.28685116  0.54279258  1
  C  C18  1  0.50000000  0.28389243  0.41895403  1
  C  C19  1  0.50000000  0.28674999  0.91749534  1
  C  C20  1  0.50000000  0.28234470  0.16701927  1
  C  C21  1  0.50000000  0.28626485  0.66723437  1
  C  C22  1  0.50000000  0.28200914  0.29313045  1
  C  C23  1  0.50000000  0.28607819  0.79274793  1
  C  C24  1  0.50000000  0.34425549  0.08358609  1
  C  C25  1  0.50000000  0.34738039  0.58327348  1
  C  C26  1  0.50000000  0.34585711  0.45803129  1
  C  C27  1  0.50000000  0.34784584  0.95842805  1
  C  C28  1  0.50000000  0.34246219  0.20856867  1
  C  C29  1  0.50000000  0.34644868  0.70832527  1
  C  C30  1  0.50000000  0.34270408  0.33271733  1
  C  C31  1  0.50000000  0.34668037  0.83289188  1
  C  C32  1  0.50000000  0.37397227  0.10601822  1
  C  C33  1  0.50000000  0.37795500  0.60500804  1
  C  C34  1  0.50000000  0.37738568  0.47835256  1
  C  C35  1  0.50000000  0.37862684  0.97963593  1
  C  C36  1  0.50000000  0.37320360  0.22936051  1
  C  C37  1  0.50000000  0.37720330  0.72930568  1
  C  C38  1  0.50000000  0.37361505  0.35282625  1
  C  C39  1  0.50000000  0.37758789  0.85346048  1
  C  C40  1  0.50000000  0.31563099  0.02032575  1
  C  C41  1  0.50000000  0.31672979  0.52095551  1
  C  C42  1  0.50000000  0.31315933  0.39608733  1
  C  C43  1  0.50000000  0.31677253  0.89588915  1
  C  C44  1  0.50000000  0.31239407  0.14541241  1
  C  C45  1  0.50000000  0.31624473  0.64569966  1
  C  C46  1  0.50000000  0.31159762  0.27069999  1
  C  C47  1  0.50000000  0.31576705  0.77079776  1
  C  C48  1  0.50000000  0.34582629  0.04176699  1
  C  C49  1  0.50000000  0.34784798  0.54134108  1
  C  C50  1  0.50000000  0.34428284  0.41621786  1
  C  C51  1  0.50000000  0.34739053  0.91648267  1
  C  C52  1  0.50000000  0.34268779  0.16708468  1
  C  C53  1  0.50000000  0.34666480  0.66684023  1
  C  C54  1  0.50000000  0.34242833  0.29128739  1
  C  C55  1  0.50000000  0.34645550  0.79141379  1
  C  C56  1  0.50000000  0.40420650  0.08577332  1
  C  C57  1  0.50000000  0.40867210  0.58498086  1
  C  C58  1  0.50000000  0.40556418  0.45319935  1
  C  C59  1  0.50000000  0.40948037  0.95663701  1
  C  C60  1  0.50000000  0.40340377  0.20804887  1
  C  C61  1  0.50000000  0.40791383  0.70880717  1
  C  C62  1  0.50000000  0.40359097  0.33115321  1
  C  C63  1  0.50000000  0.40805204  0.83219484  1
  C  C64  1  0.50000000  0.43914547  0.60656898  1
  C  C65  1  0.50000000  0.44102006  0.97265552  1
  C  C66  1  0.50000000  0.43863529  0.72940565  1
  C  C67  1  0.50000000  0.43887578  0.85217147  1
  C  C68  1  0.50000000  0.37735972  0.02145182  1
  C  C69  1  0.50000000  0.37863811  0.52015107  1
  C  C70  1  0.50000000  0.37399590  0.39382142  1
  C  C71  1  0.50000000  0.37796086  0.89475436  1
  C  C72  1  0.50000000  0.37359757  0.14701254  1
  C  C73  1  0.50000000  0.37757601  0.64628574  1
  C  C74  1  0.50000000  0.37317415  0.27053558  1
  C  C75  1  0.50000000  0.37721212  0.77044412  1
  C  C76  1  0.50000000  0.40553352  0.04661707  1
  C  C77  1  0.50000000  0.40949370  0.54314054  1
  C  C78  1  0.50000000  0.40421890  0.41407222  1
  C  C79  1  0.50000000  0.40866940  0.91479743  1
  C  C80  1  0.50000000  0.40356631  0.16870331  1
  C  C81  1  0.50000000  0.40804499  0.66756411  1
  C  C82  1  0.50000000  0.40341394  0.29181835  1
  C  C83  1  0.50000000  0.40791182  0.79094834  1
  C  C84  1  0.50000000  0.47051301  0.58778387  1
  C  C85  1  0.50000000  0.47123043  0.95264552  1
  C  C86  1  0.50000000  0.46957882  0.70916740  1
  C  C87  1  0.50000000  0.46969824  0.83145309  1
  C  C88  1  0.50000000  0.50106919  0.60782645  1
  C  C89  1  0.50000000  0.50125675  0.97298801  1
  C  C90  1  0.50000000  0.50041161  0.72947477  1
  C  C91  1  0.50000000  0.50074578  0.85119763  1
  C  C92  1  0.50000000  0.44103835  0.52715614  1
  C  C93  1  0.50000000  0.43913503  0.89321329  1
  C  C94  1  0.50000000  0.43887371  0.64760442  1
  C  C95  1  0.50000000  0.43863620  0.77036232  1
  C  C96  1  0.50000000  0.47124423  0.54715783  1
  C  C97  1  0.50000000  0.47050306  0.91202021  1
  C  C98  1  0.50000000  0.46969967  0.66832943  1
  C  C99  1  0.50000000  0.46957795  0.79060559  1
  C  C100  1  0.50000000  0.53167339  0.58730832  1
  C  C101  1  0.50000000  0.53187085  0.95377487  1
  C  C102  1  0.50000000  0.53134846  0.70941994  1
  C  C103  1  0.50000000  0.53147599  0.83103357  1
  C  C104  1  0.50000000  0.56235835  0.60744702  1
  C  C105  1  0.50000000  0.56249395  0.97352406  1
  C  C106  1  0.50000000  0.56227319  0.72951966  1
  C  C107  1  0.50000000  0.56228505  0.85146684  1
  C  C108  1  0.50000000  0.50126848  0.52680798  1
  C  C109  1  0.50000000  0.50106611  0.89196608  1
  C  C110  1  0.50000000  0.50075097  0.64858721  1
  C  C111  1  0.50000000  0.50041361  0.77030598  1
  C  C112  1  0.50000000  0.53187812  0.54602994  1
  C  C113  1  0.50000000  0.53166847  0.91249079  1
  C  C114  1  0.50000000  0.53148697  0.66874022  1
  C  C115  1  0.50000000  0.53135377  0.79034751  1
  C  C116  1  0.50000000  0.59299879  0.58703836  1
  C  C117  1  0.50000000  0.59278758  0.95393785  1
  C  C118  1  0.50000000  0.59304517  0.70921549  1
  C  C119  1  0.50000000  0.59305942  0.83147865  1
  C  C120  1  0.50000000  0.62380027  0.60681151  1
  C  C121  1  0.50000000  0.62352973  0.97379913  1
  C  C122  1  0.50000000  0.62377539  0.72949350  1
  C  C123  1  0.50000000  0.62378621  0.85199360  1
  C  C124  1  0.50000000  0.56248978  0.52626794  1
  C  C125  1  0.50000000  0.56234583  0.89233593  1
  C  C126  1  0.50000000  0.56230452  0.64831733  1
  C  C127  1  0.50000000  0.56226996  0.77023601  1
  C  C128  1  0.50000000  0.59279784  0.54583004  1
  C  C129  1  0.50000000  0.59298513  0.91273276  1
  C  C130  1  0.50000000  0.59308818  0.66829563  1
  C  C131  1  0.50000000  0.59302830  0.79055940  1
  C  C132  1  0.50000000  0.65458004  0.58597531  1
  C  C133  1  0.50000000  0.65407144  0.95538762  1
  C  C134  1  0.50000000  0.65463638  0.70896613  1
  C  C135  1  0.50000000  0.65459408  0.83180299  1
  C  C136  1  0.50000000  0.68595586  0.10341707  1
  C  C137  1  0.50000000  0.68508300  0.60601090  1
  C  C138  1  0.50000000  0.68639737  0.48317405  1
  C  C139  1  0.50000000  0.68563865  0.97653651  1
  C  C140  1  0.50000000  0.68504483  0.23005171  1
  C  C141  1  0.50000000  0.68532609  0.72925274  1
  C  C142  1  0.50000000  0.68561402  0.35676046  1
  C  C143  1  0.50000000  0.68524820  0.85257359  1
  C  C144  1  0.50000000  0.62354023  0.52594825  1
  C  C145  1  0.50000000  0.62377891  0.89294349  1
  C  C146  1  0.50000000  0.62381056  0.64776159  1
  C  C147  1  0.50000000  0.62376055  0.77028801  1
  C  C148  1  0.50000000  0.65408715  0.54434751  1
  C  C149  1  0.50000000  0.65456320  0.91376657  1
  C  C150  1  0.50000000  0.65461433  0.66795606  1
  C  C151  1  0.50000000  0.65462148  0.79080009  1
  C  C152  1  0.50000000  0.71459404  0.07980495  1
  C  C153  1  0.50000000  0.71545009  0.58438298  1
  C  C154  1  0.50000000  0.71485888  0.45974828  1
  C  C155  1  0.50000000  0.71566138  0.95449196  1
  C  C156  1  0.50000000  0.71388953  0.20658641  1
  C  C157  1  0.50000000  0.71529549  0.70785911  1
  C  C158  1  0.50000000  0.71405550  0.33277461  1
  C  C159  1  0.50000000  0.71530249  0.83132211  1
  C  C160  1  0.50000000  0.68641296  0.01652784  1
  C  C161  1  0.50000000  0.68564588  0.52317345  1
  C  C162  1  0.50000000  0.68588094  0.39638321  1
  C  C163  1  0.50000000  0.68506931  0.89374338  1
  C  C164  1  0.50000000  0.68575706  0.14303813  1
  C  C165  1  0.50000000  0.68526572  0.64718204  1
  C  C166  1  0.50000000  0.68498438  0.26965538  1
  C  C167  1  0.50000000  0.68532073  0.77052301  1
  C  C168  1  0.50000000  0.71486581  0.03998386  1
  C  C169  1  0.50000000  0.71566360  0.54524040  1
  C  C170  1  0.50000000  0.71456423  0.41992867  1
  C  C171  1  0.50000000  0.71545984  0.91534356  1
  C  C172  1  0.50000000  0.71420762  0.16700494  1
  C  C173  1  0.50000000  0.71531417  0.66844322  1
  C  C174  1  0.50000000  0.71377400  0.29320125  1
  C  C175  1  0.50000000  0.71529921  0.79190879  1
  H  H176  1  0.50000000  0.25931578  0.09440229  1
  H  H177  1  0.50000000  0.26264981  0.59688320  1
  H  H178  1  0.50000000  0.26146185  0.47382727  1
  H  H179  1  0.50000000  0.26283421  0.97162437  1
  H  H180  1  0.50000000  0.25785254  0.22109866  1
  H  H181  1  0.50000000  0.26194938  0.72152791  1
  H  H182  1  0.50000000  0.25841646  0.34774175  1
  H  H183  1  0.50000000  0.26216785  0.84706417  1
  H  H184  1  0.50000000  0.26143147  0.02598886  1
  H  H185  1  0.50000000  0.26285857  0.52803258  1
  H  H186  1  0.50000000  0.25937153  0.40532664  1
  H  H187  1  0.50000000  0.26271126  0.90278981  1
  H  H188  1  0.50000000  0.25842618  0.15203789  1
  H  H189  1  0.50000000  0.26218168  0.65259536  1
  H  H190  1  0.50000000  0.25781404  0.27881402  1
  H  H191  1  0.50000000  0.26191728  0.77827158  1
  H  H192  1  0.50000000  0.73898073  0.09388841  1
  H  H193  1  0.50000000  0.73930473  0.59936856  1
  H  H194  1  0.50000000  0.73933700  0.47357605  1
  H  H195  1  0.50000000  0.73954025  0.96952354  1
  H  H196  1  0.50000000  0.73818633  0.22093038  1
  H  H197  1  0.50000000  0.73920828  0.72270323  1
  H  H198  1  0.50000000  0.73859152  0.34653446  1
  H  H199  1  0.50000000  0.73921023  0.84618644  1
  H  H200  1  0.50000000  0.73936050  0.02619314  1
  H  H201  1  0.50000000  0.73959832  0.53033404  1
  H  H202  1  0.50000000  0.73893461  0.40581040  1
  H  H203  1  0.50000000  0.73926292  0.90023791  1
  H  H204  1  0.50000000  0.73873699  0.15322802  1
  H  H205  1  0.50000000  0.73923415  0.65360341  1
  H  H206  1  0.50000000  0.73808430  0.27888502  1
  H  H207  1  0.50000000  0.73922107  0.77706943  1
  H  H208  1  0.50000000  0.42790234  0.10115763  1
  H  H209  1  0.50000000  0.43088535  0.46284073  1
  H  H210  1  0.50000000  0.42742953  0.22278490  1
  H  H211  1  0.50000000  0.42768361  0.34564728  1
  H  H212  1  0.50000000  0.44514494  0.00289943  1
  H  H213  1  0.50000000  0.43084846  0.03697930  1
  H  H214  1  0.50000000  0.42789427  0.39863982  1
  H  H215  1  0.50000000  0.42766768  0.15421656  1
  H  H216  1  0.50000000  0.42744821  0.27710462  1
  H  H217  1  0.50000000  0.50062253  0.00441974  1
  H  H218  1  0.50000000  0.44519902  0.49691766  1
  H  H219  1  0.50000000  0.56245511  0.00494891  1
  H  H220  1  0.50000000  0.50064426  0.49537897  1
  H  H221  1  0.50000000  0.62206371  0.00509896  1
  H  H222  1  0.50000000  0.56241225  0.49483938  1
  H  H223  1  0.50000000  0.66148386  0.08945744  1
  H  H224  1  0.50000000  0.66250896  0.46818665  1
  H  H225  1  0.50000000  0.66066587  0.21585655  1
  H  H226  1  0.50000000  0.66110129  0.34290184  1
  H  H227  1  0.50000000  0.62204733  0.49464040  1
  H  H228  1  0.50000000  0.66250016  0.03144563  1
  H  H229  1  0.50000000  0.66142422  0.41038023  1
  H  H230  1  0.50000000  0.66128932  0.15699002  1
  H  H231  1  0.50000000  0.66056389  0.28376087  1
