# generated using pymatgen
data_H19C88
_symmetry_space_group_name_H-M   'P 1'
_cell_length_a   20.00000000
_cell_length_b   40.19450000
_cell_length_c   34.38211491
_cell_angle_alpha   90.00000000
_cell_angle_beta   90.00000000
_cell_angle_gamma   90.00000000
_symmetry_Int_Tables_number   1
_chemical_formula_structural   H19C88
_chemical_formula_sum   'H38 C176'
_cell_volume   27639.43835389
_cell_formula_units_Z   2
loop_
 _symmetry_equiv_pos_site_id
 _symmetry_equiv_pos_as_xyz
  1  'x, y, z'
loop_
 _atom_site_type_symbol
 _atom_site_label
 _atom_site_symmetry_multiplicity
 _atom_site_fract_x
 _atom_site_fract_y
 _atom_site_fract_z
 _atom_site_occupancy
  C  C0  1  0.50000000  0.28499965  0.58271024  1
  C  C1  1  0.50000000  0.28496244  0.95758642  1
  C  C2  1  0.50000000  0.28538473  0.70757884  1
  C  C3  1  0.50000000  0.28534978  0.83238480  1
  C  C4  1  0.50000000  0.31502950  0.60384019  1
  C  C5  1  0.50000000  0.31497755  0.97787362  1
  C  C6  1  0.50000000  0.31539916  0.72895832  1
  C  C7  1  0.50000000  0.31528077  0.85387229  1
  C  C8  1  0.50000000  0.28500516  0.54229158  1
  C  C9  1  0.50000000  0.28495928  0.91716047  1
  C  C10  1  0.50000000  0.28535282  0.66754025  1
  C  C11  1  0.50000000  0.28538839  0.79233444  1
  C  C12  1  0.50000000  0.34589131  0.58322134  1
  C  C13  1  0.50000000  0.34562568  0.95821567  1
  C  C14  1  0.50000000  0.34605195  0.70824543  1
  C  C15  1  0.50000000  0.34597860  0.83333299  1
  C  C16  1  0.50000000  0.37770951  0.10489906  1
  C  C17  1  0.50000000  0.37688268  0.60425265  1
  C  C18  1  0.50000000  0.37820675  0.48032295  1
  C  C19  1  0.50000000  0.37718465  0.97917378  1
  C  C20  1  0.50000000  0.37770618  0.23006584  1
  C  C21  1  0.50000000  0.37698373  0.72920885  1
  C  C22  1  0.50000000  0.37776925  0.35514935  1
  C  C23  1  0.50000000  0.37696077  0.85429436  1
  C  C24  1  0.50000000  0.31503189  0.52201279  1
  C  C25  1  0.50000000  0.31499893  0.89602709  1
  C  C26  1  0.50000000  0.31528413  0.64603139  1
  C  C27  1  0.50000000  0.31539858  0.77094620  1
  C  C28  1  0.50000000  0.34566079  0.54170503  1
  C  C29  1  0.50000000  0.34585689  0.91668996  1
  C  C30  1  0.50000000  0.34598001  0.66658202  1
  C  C31  1  0.50000000  0.34605969  0.79165939  1
  C  C32  1  0.50000000  0.40771222  0.08323292  1
  C  C33  1  0.50000000  0.40776312  0.58357546  1
  C  C34  1  0.50000000  0.40787584  0.45885769  1
  C  C35  1  0.50000000  0.40781208  0.95802585  1
  C  C36  1  0.50000000  0.40777379  0.20846412  1
  C  C37  1  0.50000000  0.40773695  0.70836018  1
  C  C38  1  0.50000000  0.40781408  0.33356115  1
  C  C39  1  0.50000000  0.40773120  0.83337048  1
  C  C40  1  0.50000000  0.43837114  0.10395462  1
  C  C41  1  0.50000000  0.43844451  0.60432735  1
  C  C42  1  0.50000000  0.43860388  0.47946237  1
  C  C43  1  0.50000000  0.43844384  0.97890388  1
  C  C44  1  0.50000000  0.43843520  0.22914582  1
  C  C45  1  0.50000000  0.43845136  0.72915366  1
  C  C46  1  0.50000000  0.43845072  0.35427481  1
  C  C47  1  0.50000000  0.43846027  0.85404023  1
  C  C48  1  0.50000000  0.37813703  0.01965080  1
  C  C49  1  0.50000000  0.37723601  0.52078401  1
  C  C50  1  0.50000000  0.37775928  0.39512618  1
  C  C51  1  0.50000000  0.37685855  0.89567490  1
  C  C52  1  0.50000000  0.37773719  0.14490814  1
  C  C53  1  0.50000000  0.37696665  0.64563233  1
  C  C54  1  0.50000000  0.37771325  0.27003670  1
  C  C55  1  0.50000000  0.37698871  0.77070368  1
  C  C56  1  0.50000000  0.40780968  0.04111850  1
  C  C57  1  0.50000000  0.40786147  0.54193712  1
  C  C58  1  0.50000000  0.40777410  0.41675801  1
  C  C59  1  0.50000000  0.40772988  0.91637610  1
  C  C60  1  0.50000000  0.40778375  0.16649319  1
  C  C61  1  0.50000000  0.40773241  0.66656741  1
  C  C62  1  0.50000000  0.40779353  0.29160395  1
  C  C63  1  0.50000000  0.40773550  0.79157413  1
  C  C64  1  0.50000000  0.46922350  0.08301304  1
  C  C65  1  0.50000000  0.46929033  0.58340726  1
  C  C66  1  0.50000000  0.46925267  0.45841227  1
  C  C67  1  0.50000000  0.46923852  0.95793042  1
  C  C68  1  0.50000000  0.46923504  0.20811826  1
  C  C69  1  0.50000000  0.46935205  0.70829694  1
  C  C70  1  0.50000000  0.46926509  0.33330333  1
  C  C71  1  0.50000000  0.46937001  0.83316290  1
  C  C72  1  0.50000000  0.50005860  0.10393396  1
  C  C73  1  0.50000000  0.50014391  0.60430411  1
  C  C74  1  0.50000000  0.49988316  0.47946528  1
  C  C75  1  0.50000000  0.49997790  0.97886603  1
  C  C76  1  0.50000000  0.50003521  0.22911882  1
  C  C77  1  0.50000000  0.50016905  0.72910178  1
  C  C78  1  0.50000000  0.50008061  0.35427788  1
  C  C79  1  0.50000000  0.50015906  0.85394154  1
  C  C80  1  0.50000000  0.43855787  0.02052136  1
  C  C81  1  0.50000000  0.43848457  0.52106228  1
  C  C82  1  0.50000000  0.43842700  0.39603851  1
  C  C83  1  0.50000000  0.43842628  0.89563823  1
  C  C84  1  0.50000000  0.43840995  0.14573618  1
  C  C85  1  0.50000000  0.43846406  0.64591592  1
  C  C86  1  0.50000000  0.43843261  0.27090398  1
  C  C87  1  0.50000000  0.43845520  0.77080146  1
  C  C88  1  0.50000000  0.46921839  0.04157531  1
  C  C89  1  0.50000000  0.46925198  0.54203685  1
  C  C90  1  0.50000000  0.46926253  0.41699131  1
  C  C91  1  0.50000000  0.46928545  0.91655318  1
  C  C92  1  0.50000000  0.46923439  0.16670404  1
  C  C93  1  0.50000000  0.46935827  0.66680438  1
  C  C94  1  0.50000000  0.46924788  0.29188779  1
  C  C95  1  0.50000000  0.46935966  0.79166629  1
  C  C96  1  0.50000000  0.53072808  0.08317678  1
  C  C97  1  0.50000000  0.53072180  0.58361107  1
  C  C98  1  0.50000000  0.53060110  0.45887730  1
  C  C99  1  0.50000000  0.53060978  0.95793024  1
  C  C100  1  0.50000000  0.53069203  0.20842534  1
  C  C101  1  0.50000000  0.53088618  0.70835333  1
  C  C102  1  0.50000000  0.53071562  0.33355447  1
  C  C103  1  0.50000000  0.53090409  0.83321244  1
  C  C104  1  0.50000000  0.56074591  0.10485480  1
  C  C105  1  0.50000000  0.56176310  0.60444745  1
  C  C106  1  0.50000000  0.56027797  0.48043802  1
  C  C107  1  0.50000000  0.56120802  0.97913657  1
  C  C108  1  0.50000000  0.56076857  0.23002463  1
  C  C109  1  0.50000000  0.56179678  0.72920511  1
  C  C110  1  0.50000000  0.56076609  0.35518391  1
  C  C111  1  0.50000000  0.56179095  0.85407175  1
  C  C112  1  0.50000000  0.49986679  0.02051729  1
  C  C113  1  0.50000000  0.49997480  0.52110402  1
  C  C114  1  0.50000000  0.50008299  0.39606537  1
  C  C115  1  0.50000000  0.50016303  0.89566705  1
  C  C116  1  0.50000000  0.50004885  0.14572659  1
  C  C117  1  0.50000000  0.50014171  0.64602104  1
  C  C118  1  0.50000000  0.50003836  0.27087742  1
  C  C119  1  0.50000000  0.50017474  0.77085771  1
  C  C120  1  0.50000000  0.53059885  0.04110310  1
  C  C121  1  0.50000000  0.53057900  0.54203827  1
  C  C122  1  0.50000000  0.53074511  0.41682106  1
  C  C123  1  0.50000000  0.53074802  0.91634684  1
  C  C124  1  0.50000000  0.53067869  0.16646360  1
  C  C125  1  0.50000000  0.53088650  0.66675112  1
  C  C126  1  0.50000000  0.53069445  0.29158882  1
  C  C127  1  0.50000000  0.53089555  0.79160397  1
  C  C128  1  0.50000000  0.59252752  0.58373259  1
  C  C129  1  0.50000000  0.59279876  0.95806601  1
  C  C130  1  0.50000000  0.59257896  0.70846177  1
  C  C131  1  0.50000000  0.59266414  0.83325763  1
  C  C132  1  0.50000000  0.62328227  0.60438580  1
  C  C133  1  0.50000000  0.62301867  0.97742448  1
  C  C134  1  0.50000000  0.62327911  0.72914774  1
  C  C135  1  0.50000000  0.62328610  0.85389297  1
  C  C136  1  0.50000000  0.56028933  0.01954286  1
  C  C137  1  0.50000000  0.56116318  0.52084271  1
  C  C138  1  0.50000000  0.56077327  0.39517373  1
  C  C139  1  0.50000000  0.56179584  0.89550897  1
  C  C140  1  0.50000000  0.56073202  0.14484601  1
  C  C141  1  0.50000000  0.56176508  0.64587367  1
  C  C142  1  0.50000000  0.56076976  0.26998971  1
  C  C143  1  0.50000000  0.56180227  0.77073112  1
  C  C144  1  0.50000000  0.59275891  0.54187005  1
  C  C145  1  0.50000000  0.59256848  0.91619334  1
  C  C146  1  0.50000000  0.59264284  0.66666812  1
  C  C147  1  0.50000000  0.59259661  0.79145649  1
  C  C148  1  0.50000000  0.65412000  0.58363266  1
  C  C149  1  0.50000000  0.65390590  0.95785049  1
  C  C150  1  0.50000000  0.65421343  0.70824133  1
  C  C151  1  0.50000000  0.65434458  0.83328036  1
  C  C152  1  0.50000000  0.68520261  0.60361754  1
  C  C153  1  0.50000000  0.68417279  0.97880879  1
  C  C154  1  0.50000000  0.68491300  0.72889442  1
  C  C155  1  0.50000000  0.68511985  0.85396106  1
  C  C156  1  0.50000000  0.62294473  0.52246867  1
  C  C157  1  0.50000000  0.62332033  0.89551923  1
  C  C158  1  0.50000000  0.62324678  0.64600591  1
  C  C159  1  0.50000000  0.62328781  0.77073998  1
  C  C160  1  0.50000000  0.65383493  0.54201788  1
  C  C161  1  0.50000000  0.65417904  0.91623219  1
  C  C162  1  0.50000000  0.65430602  0.66659404  1
  C  C163  1  0.50000000  0.65423659  0.79162324  1
  C  C164  1  0.50000000  0.71472050  0.58159159  1
  C  C165  1  0.50000000  0.71428329  0.95902293  1
  C  C166  1  0.50000000  0.71483209  0.70749990  1
  C  C167  1  0.50000000  0.71494966  0.83243928  1
  C  C168  1  0.50000000  0.68409500  0.52105273  1
  C  C169  1  0.50000000  0.68526454  0.89624306  1
  C  C170  1  0.50000000  0.68506541  0.64589026  1
  C  C171  1  0.50000000  0.68492717  0.77093674  1
  C  C172  1  0.50000000  0.71419846  0.54084297  1
  C  C173  1  0.50000000  0.71478230  0.91826918  1
  C  C174  1  0.50000000  0.71489705  0.66737749  1
  C  C175  1  0.50000000  0.71486814  0.79230303  1
  H  H176  1  0.50000000  0.26113671  0.59791711  1
  H  H177  1  0.50000000  0.26133189  0.97348434  1
  H  H178  1  0.50000000  0.26140870  0.72253223  1
  H  H179  1  0.50000000  0.26137108  0.84736734  1
  H  H180  1  0.50000000  0.26137580  0.52640652  1
  H  H181  1  0.50000000  0.26108700  0.90197158  1
  H  H182  1  0.50000000  0.26138789  0.65253297  1
  H  H183  1  0.50000000  0.26143118  0.77732797  1
  H  H184  1  0.50000000  0.73888823  0.59615017  1
  H  H185  1  0.50000000  0.73784243  0.97509266  1
  H  H186  1  0.50000000  0.73879035  0.72246954  1
  H  H187  1  0.50000000  0.73890029  0.84747526  1
  H  H188  1  0.50000000  0.73771439  0.52468083  1
  H  H189  1  0.50000000  0.73896588  0.90374497  1
  H  H190  1  0.50000000  0.73884275  0.65233722  1
  H  H191  1  0.50000000  0.73881139  0.77728839  1
  H  H192  1  0.50000000  0.31413843  0.00964855  1
  H  H193  1  0.50000000  0.35362930  0.09013453  1
  H  H194  1  0.50000000  0.35474318  0.46456256  1
  H  H195  1  0.50000000  0.35374836  0.21499214  1
  H  H196  1  0.50000000  0.35386439  0.34001792  1
  H  H197  1  0.50000000  0.31420075  0.49023529  1
  H  H198  1  0.50000000  0.35468983  0.03545164  1
  H  H199  1  0.50000000  0.35370856  0.40999631  1
  H  H200  1  0.50000000  0.35382832  0.16003139  1
  H  H201  1  0.50000000  0.35378481  0.28516355  1
  H  H202  1  0.50000000  0.58480814  0.09005863  1
  H  H203  1  0.50000000  0.58378150  0.46474021  1
  H  H204  1  0.50000000  0.58471039  0.21493355  1
  H  H205  1  0.50000000  0.58465674  0.34002032  1
  H  H206  1  0.50000000  0.62399918  0.00918021  1
  H  H207  1  0.50000000  0.58377949  0.03529413  1
  H  H208  1  0.50000000  0.58481907  0.41001837  1
  H  H209  1  0.50000000  0.58462958  0.15999264  1
  H  H210  1  0.50000000  0.58469645  0.28512595  1
  H  H211  1  0.50000000  0.68336751  0.01070945  1
  H  H212  1  0.50000000  0.62393176  0.49070621  1
  H  H213  1  0.50000000  0.68333108  0.48915364  1
