# generated using pymatgen
data_H7C22
_symmetry_space_group_name_H-M   'P 1'
_cell_length_a   20.00000000
_cell_length_b   40.19450000
_cell_length_c   34.71350355
_cell_angle_alpha   90.00000000
_cell_angle_beta   90.00000000
_cell_angle_gamma   90.00000000
_symmetry_Int_Tables_number   1
_chemical_formula_structural   H7C22
_chemical_formula_sum   'H56 C176'
_cell_volume   27905.83836669
_cell_formula_units_Z   8
loop_
 _symmetry_equiv_pos_site_id
 _symmetry_equiv_pos_as_xyz
  1  'x, y, z'
loop_
 _atom_site_type_symbol
 _atom_site_label
 _atom_site_symmetry_multiplicity
 _atom_site_fract_x
 _atom_site_fract_y
 _atom_site_fract_z
 _atom_site_occupancy
  C  C0  1  0.50000000  0.28379690  0.08262565  1
  C  C1  1  0.50000000  0.28236809  0.58237494  1
  C  C2  1  0.50000000  0.28321477  0.45697087  1
  C  C3  1  0.50000000  0.28238854  0.95718738  1
  C  C4  1  0.50000000  0.28517795  0.20752317  1
  C  C5  1  0.50000000  0.28219274  0.70740202  1
  C  C6  1  0.50000000  0.28498181  0.33217388  1
  C  C7  1  0.50000000  0.28221295  0.83228487  1
  C  C8  1  0.50000000  0.31419981  0.10390261  1
  C  C9  1  0.50000000  0.31230791  0.60430220  1
  C  C10  1  0.50000000  0.31287745  0.47943295  1
  C  C11  1  0.50000000  0.31253644  0.97872237  1
  C  C12  1  0.50000000  0.31534954  0.22909318  1
  C  C13  1  0.50000000  0.31205695  0.72904715  1
  C  C14  1  0.50000000  0.31487506  0.35421639  1
  C  C15  1  0.50000000  0.31216526  0.85375750  1
  C  C16  1  0.50000000  0.28308483  0.04296943  1
  C  C17  1  0.50000000  0.28246004  0.54273652  1
  C  C18  1  0.50000000  0.28395262  0.41732781  1
  C  C19  1  0.50000000  0.28230155  0.91751924  1
  C  C20  1  0.50000000  0.28485572  0.16792197  1
  C  C21  1  0.50000000  0.28222818  0.66761930  1
  C  C22  1  0.50000000  0.28521356  0.29257601  1
  C  C23  1  0.50000000  0.28214912  0.79248698  1
  C  C24  1  0.50000000  0.34453094  0.08261297  1
  C  C25  1  0.50000000  0.34292420  0.58394689  1
  C  C26  1  0.50000000  0.34391813  0.45939190  1
  C  C27  1  0.50000000  0.34300858  0.95748400  1
  C  C28  1  0.50000000  0.34589083  0.20816037  1
  C  C29  1  0.50000000  0.34272915  0.70840604  1
  C  C30  1  0.50000000  0.34568635  0.33375422  1
  C  C31  1  0.50000000  0.34279573  0.83290851  1
  C  C32  1  0.50000000  0.37477864  0.10408749  1
  C  C33  1  0.50000000  0.37389695  0.60506791  1
  C  C34  1  0.50000000  0.37340246  0.48158456  1
  C  C35  1  0.50000000  0.37388326  0.97826740  1
  C  C36  1  0.50000000  0.37593409  0.23007656  1
  C  C37  1  0.50000000  0.37352598  0.72932411  1
  C  C38  1  0.50000000  0.37542548  0.35613184  1
  C  C39  1  0.50000000  0.37369619  0.85356029  1
  C  C40  1  0.50000000  0.31275793  0.02047782  1
  C  C41  1  0.50000000  0.31260091  0.52118768  1
  C  C42  1  0.50000000  0.31436039  0.39607080  1
  C  C43  1  0.50000000  0.31227097  0.89559825  1
  C  C44  1  0.50000000  0.31470861  0.14577327  1
  C  C45  1  0.50000000  0.31215421  0.64612100  1
  C  C46  1  0.50000000  0.31536616  0.27094478  1
  C  C47  1  0.50000000  0.31201969  0.77084412  1
  C  C48  1  0.50000000  0.34378719  0.04054777  1
  C  C49  1  0.50000000  0.34304748  0.54243824  1
  C  C50  1  0.50000000  0.34468430  0.41733950  1
  C  C51  1  0.50000000  0.34287150  0.91598066  1
  C  C52  1  0.50000000  0.34554415  0.16620495  1
  C  C53  1  0.50000000  0.34278375  0.66693486  1
  C  C54  1  0.50000000  0.34595519  0.29179950  1
  C  C55  1  0.50000000  0.34269772  0.79144082  1
  C  C56  1  0.50000000  0.40463958  0.58475652  1
  C  C57  1  0.50000000  0.40530446  0.95673543  1
  C  C58  1  0.50000000  0.40423079  0.70865950  1
  C  C59  1  0.50000000  0.40434344  0.83255880  1
  C  C60  1  0.50000000  0.43525254  0.60574273  1
  C  C61  1  0.50000000  0.43577060  0.97536417  1
  C  C62  1  0.50000000  0.43493600  0.72931031  1
  C  C63  1  0.50000000  0.43507738  0.85281642  1
  C  C64  1  0.50000000  0.37329225  0.01837880  1
  C  C65  1  0.50000000  0.37391398  0.52166270  1
  C  C66  1  0.50000000  0.37492910  0.39585930  1
  C  C67  1  0.50000000  0.37385868  0.89481259  1
  C  C68  1  0.50000000  0.37526629  0.14380833  1
  C  C69  1  0.50000000  0.37368239  0.64627923  1
  C  C70  1  0.50000000  0.37595808  0.26979896  1
  C  C71  1  0.50000000  0.37350631  0.77056021  1
  C  C72  1  0.50000000  0.40529863  0.54314390  1
  C  C73  1  0.50000000  0.40462670  0.91511130  1
  C  C74  1  0.50000000  0.40433818  0.66729739  1
  C  C75  1  0.50000000  0.40422991  0.79120091  1
  C  C76  1  0.50000000  0.46615042  0.58582668  1
  C  C77  1  0.50000000  0.46650229  0.95536602  1
  C  C78  1  0.50000000  0.46577958  0.70883444  1
  C  C79  1  0.50000000  0.46584379  0.83208991  1
  C  C80  1  0.50000000  0.49682858  0.60630140  1
  C  C81  1  0.50000000  0.49689653  0.97515516  1
  C  C82  1  0.50000000  0.49656800  0.72932596  1
  C  C83  1  0.50000000  0.49669415  0.85230039  1
  C  C84  1  0.50000000  0.43576599  0.52453960  1
  C  C85  1  0.50000000  0.43524497  0.89410941  1
  C  C86  1  0.50000000  0.43507765  0.64702944  1
  C  C87  1  0.50000000  0.43493399  0.77052468  1
  C  C88  1  0.50000000  0.46649050  0.54448305  1
  C  C89  1  0.50000000  0.46615622  0.91400777  1
  C  C90  1  0.50000000  0.46585017  0.66772684  1
  C  C91  1  0.50000000  0.46578483  0.79098094  1
  C  C92  1  0.50000000  0.52742714  0.58592216  1
  C  C93  1  0.50000000  0.52755384  0.95540476  1
  C  C94  1  0.50000000  0.52735617  0.70900640  1
  C  C95  1  0.50000000  0.52738006  0.83180058  1
  C  C96  1  0.50000000  0.55810953  0.60647285  1
  C  C97  1  0.50000000  0.55826411  0.97482203  1
  C  C98  1  0.50000000  0.55826432  0.72934311  1
  C  C99  1  0.50000000  0.55818369  0.85220496  1
  C  C100  1  0.50000000  0.49684239  0.52463829  1
  C  C101  1  0.50000000  0.49684148  0.89349368  1
  C  C102  1  0.50000000  0.49669142  0.64749421  1
  C  C103  1  0.50000000  0.49656869  0.77046732  1
  C  C104  1  0.50000000  0.52750282  0.54432277  1
  C  C105  1  0.50000000  0.52747357  0.91380607  1
  C  C106  1  0.50000000  0.52737497  0.66796057  1
  C  C107  1  0.50000000  0.52736607  0.79075676  1
  C  C108  1  0.50000000  0.58878764  0.58618593  1
  C  C109  1  0.50000000  0.58863865  0.95461755  1
  C  C110  1  0.50000000  0.58902157  0.70883301  1
  C  C111  1  0.50000000  0.58911283  0.83215189  1
  C  C112  1  0.50000000  0.61981129  0.60558964  1
  C  C113  1  0.50000000  0.61902971  0.97453296  1
  C  C114  1  0.50000000  0.61966126  0.72931234  1
  C  C115  1  0.50000000  0.61979568  0.85276829  1
  C  C116  1  0.50000000  0.55818190  0.52485720  1
  C  C117  1  0.50000000  0.55815407  0.89321191  1
  C  C118  1  0.50000000  0.55815045  0.64749995  1
  C  C119  1  0.50000000  0.55826979  0.77039692  1
  C  C120  1  0.50000000  0.58857329  0.54498728  1
  C  C121  1  0.50000000  0.58886555  0.91343139  1
  C  C122  1  0.50000000  0.58906946  0.66755118  1
  C  C123  1  0.50000000  0.58904135  0.79088057  1
  C  C124  1  0.50000000  0.66630018  0.08732437  1
  C  C125  1  0.50000000  0.65061982  0.58437625  1
  C  C126  1  0.50000000  0.66085332  0.45146614  1
  C  C127  1  0.50000000  0.65066320  0.95722247  1
  C  C128  1  0.50000000  0.67434652  0.20859438  1
  C  C129  1  0.50000000  0.65051571  0.70864946  1
  C  C130  1  0.50000000  0.67267126  0.33051331  1
  C  C131  1  0.50000000  0.65058259  0.83219606  1
  C  C132  1  0.50000000  0.69820584  0.10367777  1
  C  C133  1  0.50000000  0.68107652  0.60514729  1
  C  C134  1  0.50000000  0.68677109  0.47891452  1
  C  C135  1  0.50000000  0.68218576  0.97820195  1
  C  C136  1  0.50000000  0.70489918  0.22849712  1
  C  C137  1  0.50000000  0.68122354  0.72903172  1
  C  C138  1  0.50000000  0.70150524  0.35361280  1
  C  C139  1  0.50000000  0.68120996  0.85277826  1
  C  C140  1  0.50000000  0.61896334  0.52504659  1
  C  C141  1  0.50000000  0.61990670  0.89403781  1
  C  C142  1  0.50000000  0.61972165  0.64687645  1
  C  C143  1  0.50000000  0.61967516  0.77038731  1
  C  C144  1  0.50000000  0.66101503  0.04801343  1
  C  C145  1  0.50000000  0.65058103  0.54236325  1
  C  C146  1  0.50000000  0.66614150  0.41215999  1
  C  C147  1  0.50000000  0.65072887  0.91521246  1
  C  C148  1  0.50000000  0.67277850  0.16887534  1
  C  C149  1  0.50000000  0.65051232  0.66743984  1
  C  C150  1  0.50000000  0.67428217  0.29078924  1
  C  C151  1  0.50000000  0.65055771  0.79099320  1
  C  C152  1  0.50000000  0.72476000  0.07709046  1
  C  C153  1  0.50000000  0.71093157  0.58400588  1
  C  C154  1  0.50000000  0.71908924  0.46201261  1
  C  C155  1  0.50000000  0.71115131  0.95546589  1
  C  C156  1  0.50000000  0.73392956  0.20564321  1
  C  C157  1  0.50000000  0.71111957  0.70774481  1
  C  C158  1  0.50000000  0.73221629  0.33402187  1
  C  C159  1  0.50000000  0.71115859  0.83153547  1
  C  C160  1  0.50000000  0.68692019  0.02058760  1
  C  C161  1  0.50000000  0.68208567  0.52133932  1
  C  C162  1  0.50000000  0.69803450  0.39576948  1
  C  C163  1  0.50000000  0.68118911  0.89446716  1
  C  C164  1  0.50000000  0.70164307  0.14583057  1
  C  C165  1  0.50000000  0.68111783  0.64683668  1
  C  C166  1  0.50000000  0.70485932  0.27092777  1
  C  C167  1  0.50000000  0.68124607  0.77059399  1
  C  C168  1  0.50000000  0.71924048  0.03745577  1
  C  C169  1  0.50000000  0.71102788  0.54412308  1
  C  C170  1  0.50000000  0.72458956  0.42235608  1
  C  C171  1  0.50000000  0.71105635  0.91560440  1
  C  C172  1  0.50000000  0.73235163  0.16542560  1
  C  C173  1  0.50000000  0.71106787  0.66802478  1
  C  C174  1  0.50000000  0.73385851  0.29381767  1
  C  C175  1  0.50000000  0.71116926  0.79182511  1
  H  H176  1  0.50000000  0.26002584  0.09794703  1
  H  H177  1  0.50000000  0.25826863  0.59698830  1
  H  H178  1  0.50000000  0.25891218  0.47117055  1
  H  H179  1  0.50000000  0.25848647  0.97228717  1
  H  H180  1  0.50000000  0.26128500  0.22254918  1
  H  H181  1  0.50000000  0.25817163  0.72215657  1
  H  H182  1  0.50000000  0.26094902  0.34689913  1
  H  H183  1  0.50000000  0.25825866  0.84723971  1
  H  H184  1  0.50000000  0.25874397  0.02884839  1
  H  H185  1  0.50000000  0.25849273  0.52781808  1
  H  H186  1  0.50000000  0.26020133  0.40199586  1
  H  H187  1  0.50000000  0.25825213  0.90277368  1
  H  H188  1  0.50000000  0.26073443  0.15339404  1
  H  H189  1  0.50000000  0.25824373  0.65277088  1
  H  H190  1  0.50000000  0.26127683  0.27764806  1
  H  H191  1  0.50000000  0.25813541  0.77768870  1
  H  H192  1  0.50000000  0.75063710  0.08705377  1
  H  H193  1  0.50000000  0.73496396  0.59872819  1
  H  H194  1  0.50000000  0.74133545  0.48008414  1
  H  H195  1  0.50000000  0.73551568  0.96931816  1
  H  H196  1  0.50000000  0.75845681  0.21939078  1
  H  H197  1  0.50000000  0.73510109  0.72257632  1
  H  H198  1  0.50000000  0.75549688  0.35040620  1
  H  H199  1  0.50000000  0.73511446  0.84639178  1
  H  H200  1  0.50000000  0.74148956  0.01938646  1
  H  H201  1  0.50000000  0.73544017  0.53039433  1
  H  H202  1  0.50000000  0.75040935  0.41220362  1
  H  H203  1  0.50000000  0.73512383  0.90097172  1
  H  H204  1  0.50000000  0.75560058  0.14895075  1
  H  H205  1  0.50000000  0.73500974  0.65313389  1
  H  H206  1  0.50000000  0.75844619  0.28020691  1
  H  H207  1  0.50000000  0.73512379  0.77697187  1
  H  H208  1  0.50000000  0.39871531  0.08907575  1
  H  H209  1  0.50000000  0.39704883  0.46623674  1
  H  H210  1  0.50000000  0.39998546  0.21531570  1
  H  H211  1  0.50000000  0.39958821  0.34163973  1
  H  H212  1  0.50000000  0.43718882  0.00684590  1
  H  H213  1  0.50000000  0.39693186  0.03375145  1
  H  H214  1  0.50000000  0.39883168  0.41094450  1
  H  H215  1  0.50000000  0.39944705  0.15825393  1
  H  H216  1  0.50000000  0.40004198  0.28447540  1
  H  H217  1  0.50000000  0.49682075  0.00677039  1
  H  H218  1  0.50000000  0.43714207  0.49308841  1
  H  H219  1  0.50000000  0.55857557  0.00645021  1
  H  H220  1  0.50000000  0.49672581  0.49304740  1
  H  H221  1  0.50000000  0.61590072  0.00532903  1
  H  H222  1  0.50000000  0.55847258  0.49325395  1
  H  H223  1  0.50000000  0.64403587  0.10532720  1
  H  H224  1  0.50000000  0.63490436  0.45932781  1
  H  H225  1  0.50000000  0.65069613  0.22405463  1
  H  H226  1  0.50000000  0.64791466  0.34345115  1
  H  H227  1  0.50000000  0.61593559  0.49422045  1
  H  H228  1  0.50000000  0.63510359  0.04002419  1
  H  H229  1  0.50000000  0.64381973  0.39424464  1
  H  H230  1  0.50000000  0.64805358  0.15588008  1
  H  H231  1  0.50000000  0.65065006  0.27529169  1
