# generated using pymatgen
data_H5C22
_symmetry_space_group_name_H-M   'P 1'
_cell_length_a   20.00000000
_cell_length_b   40.19450000
_cell_length_c   34.61095762
_cell_angle_alpha   90.00000000
_cell_angle_beta   90.00000000
_cell_angle_gamma   90.00000000
_symmetry_Int_Tables_number   1
_chemical_formula_structural   H5C22
_chemical_formula_sum   'H40 C176'
_cell_volume   27823.40272245
_cell_formula_units_Z   8
loop_
 _symmetry_equiv_pos_site_id
 _symmetry_equiv_pos_as_xyz
  1  'x, y, z'
loop_
 _atom_site_type_symbol
 _atom_site_label
 _atom_site_symmetry_multiplicity
 _atom_site_fract_x
 _atom_site_fract_y
 _atom_site_fract_z
 _atom_site_occupancy
  C  C0  1  0.50000000  0.28353030  0.08049190  1
  C  C1  1  0.50000000  0.28699766  0.58358088  1
  C  C2  1  0.50000000  0.28452251  0.45921381  1
  C  C3  1  0.50000000  0.28644555  0.95602534  1
  C  C4  1  0.50000000  0.28161350  0.20659104  1
  C  C5  1  0.50000000  0.28743668  0.70757055  1
  C  C6  1  0.50000000  0.28193409  0.33323084  1
  C  C7  1  0.50000000  0.28744937  0.83208577  1
  C  C8  1  0.50000000  0.31294407  0.10309988  1
  C  C9  1  0.50000000  0.31723288  0.60446107  1
  C  C10  1  0.50000000  0.31500615  0.48000224  1
  C  C11  1  0.50000000  0.31611732  0.97803493  1
  C  C12  1  0.50000000  0.31131292  0.22888626  1
  C  C13  1  0.50000000  0.31735037  0.72900574  1
  C  C14  1  0.50000000  0.31207844  0.35479140  1
  C  C15  1  0.50000000  0.31733298  0.85360033  1
  C  C16  1  0.50000000  0.28457543  0.04067396  1
  C  C17  1  0.50000000  0.28642983  0.54384219  1
  C  C18  1  0.50000000  0.28346045  0.41939619  1
  C  C19  1  0.50000000  0.28699331  0.91629080  1
  C  C20  1  0.50000000  0.28198675  0.16664542  1
  C  C21  1  0.50000000  0.28747678  0.66772325  1
  C  C22  1  0.50000000  0.28155490  0.29327770  1
  C  C23  1  0.50000000  0.28744230  0.79223295  1
  C  C24  1  0.50000000  0.34394485  0.08289574  1
  C  C25  1  0.50000000  0.34763623  0.58350700  1
  C  C26  1  0.50000000  0.34516705  0.45866130  1
  C  C27  1  0.50000000  0.34721634  0.95792708  1
  C  C28  1  0.50000000  0.34196355  0.20812320  1
  C  C29  1  0.50000000  0.34797973  0.70831211  1
  C  C30  1  0.50000000  0.34239021  0.33354467  1
  C  C31  1  0.50000000  0.34804738  0.83312053  1
  C  C32  1  0.50000000  0.37418193  0.10453101  1
  C  C33  1  0.50000000  0.37878778  0.60404446  1
  C  C34  1  0.50000000  0.37651367  0.47912481  1
  C  C35  1  0.50000000  0.37787228  0.97934754  1
  C  C36  1  0.50000000  0.37255000  0.22936291  1
  C  C37  1  0.50000000  0.37874023  0.72916687  1
  C  C38  1  0.50000000  0.37339883  0.35405266  1
  C  C39  1  0.50000000  0.37878977  0.85417799  1
  C  C40  1  0.50000000  0.31504501  0.01982774  1
  C  C41  1  0.50000000  0.31606833  0.52178702  1
  C  C42  1  0.50000000  0.31287617  0.39678508  1
  C  C43  1  0.50000000  0.31722942  0.89539891  1
  C  C44  1  0.50000000  0.31211984  0.14509081  1
  C  C45  1  0.50000000  0.31735864  0.64625328  1
  C  C46  1  0.50000000  0.31129327  0.27100616  1
  C  C47  1  0.50000000  0.31735892  0.77082616  1
  C  C48  1  0.50000000  0.34521266  0.04117433  1
  C  C49  1  0.50000000  0.34715281  0.54191443  1
  C  C50  1  0.50000000  0.34388536  0.41696468  1
  C  C51  1  0.50000000  0.34765470  0.91633283  1
  C  C52  1  0.50000000  0.34242367  0.16634171  1
  C  C53  1  0.50000000  0.34805873  0.66672286  1
  C  C54  1  0.50000000  0.34195147  0.29176963  1
  C  C55  1  0.50000000  0.34797302  0.79152500  1
  C  C56  1  0.50000000  0.40523372  0.08414032  1
  C  C57  1  0.50000000  0.40927331  0.58304144  1
  C  C58  1  0.50000000  0.40676096  0.45759150  1
  C  C59  1  0.50000000  0.40928578  0.95892889  1
  C  C60  1  0.50000000  0.40337648  0.20879324  1
  C  C61  1  0.50000000  0.40927226  0.70829329  1
  C  C62  1  0.50000000  0.40367642  0.33241713  1
  C  C63  1  0.50000000  0.40930666  0.83318586  1
  C  C64  1  0.50000000  0.43474485  0.10637198  1
  C  C65  1  0.50000000  0.43992247  0.60431425  1
  C  C66  1  0.50000000  0.43819644  0.47761158  1
  C  C67  1  0.50000000  0.43982960  0.98005871  1
  C  C68  1  0.50000000  0.43395811  0.22926218  1
  C  C69  1  0.50000000  0.43986751  0.72914833  1
  C  C70  1  0.50000000  0.43440092  0.35228223  1
  C  C71  1  0.50000000  0.43993448  0.85385684  1
  C  C72  1  0.50000000  0.37657779  0.02070458  1
  C  C73  1  0.50000000  0.37782119  0.52048612  1
  C  C74  1  0.50000000  0.37413395  0.39535290  1
  C  C75  1  0.50000000  0.37880026  0.89577056  1
  C  C76  1  0.50000000  0.37342925  0.14582675  1
  C  C77  1  0.50000000  0.37878280  0.64563244  1
  C  C78  1  0.50000000  0.37254354  0.27051165  1
  C  C79  1  0.50000000  0.37872600  0.77065547  1
  C  C80  1  0.50000000  0.40684617  0.04224964  1
  C  C81  1  0.50000000  0.40926065  0.54087450  1
  C  C82  1  0.50000000  0.40518385  0.41572323  1
  C  C83  1  0.50000000  0.40929237  0.91676086  1
  C  C84  1  0.50000000  0.40370361  0.16747902  1
  C  C85  1  0.50000000  0.40930582  0.66662448  1
  C  C86  1  0.50000000  0.40336251  0.29110239  1
  C  C87  1  0.50000000  0.40927595  0.79152168  1
  C  C88  1  0.50000000  0.46505089  0.08652722  1
  C  C89  1  0.50000000  0.47067228  0.58402999  1
  C  C90  1  0.50000000  0.46637806  0.45265003  1
  C  C91  1  0.50000000  0.47110850  0.95767320  1
  C  C92  1  0.50000000  0.46425343  0.20839616  1
  C  C93  1  0.50000000  0.47057069  0.70843352  1
  C  C94  1  0.50000000  0.46449485  0.33100082  1
  C  C95  1  0.50000000  0.47057672  0.83271195  1
  C  C96  1  0.50000000  0.50136545  0.60546834  1
  C  C97  1  0.50000000  0.50268679  0.97410310  1
  C  C98  1  0.50000000  0.50128510  0.72918012  1
  C  C99  1  0.50000000  0.50132302  0.85294086  1
  C  C100  1  0.50000000  0.43828959  0.02221373  1
  C  C101  1  0.50000000  0.43979552  0.51974979  1
  C  C102  1  0.50000000  0.43473757  0.39349690  1
  C  C103  1  0.50000000  0.43994109  0.89548329  1
  C  C104  1  0.50000000  0.43442274  0.14759389  1
  C  C105  1  0.50000000  0.43992254  0.64592919  1
  C  C106  1  0.50000000  0.43394723  0.27061416  1
  C  C107  1  0.50000000  0.43987966  0.77064715  1
  C  C108  1  0.50000000  0.46645644  0.04722883  1
  C  C109  1  0.50000000  0.47109008  0.54214322  1
  C  C110  1  0.50000000  0.46503921  0.41335465  1
  C  C111  1  0.50000000  0.47067762  0.91578936  1
  C  C112  1  0.50000000  0.46453754  0.16889794  1
  C  C113  1  0.50000000  0.47055454  0.66707933  1
  C  C114  1  0.50000000  0.46422774  0.29150253  1
  C  C115  1  0.50000000  0.47059080  0.79135501  1
  C  C116  1  0.50000000  0.53256929  0.58642382  1
  C  C117  1  0.50000000  0.53300731  0.95429091  1
  C  C118  1  0.50000000  0.53205754  0.70877137  1
  C  C119  1  0.50000000  0.53210726  0.83221478  1
  C  C120  1  0.50000000  0.56331926  0.60648360  1
  C  C121  1  0.50000000  0.56301442  0.97500006  1
  C  C122  1  0.50000000  0.56294478  0.72931253  1
  C  C123  1  0.50000000  0.56314684  0.85226122  1
  C  C124  1  0.50000000  0.50266329  0.52570539  1
  C  C125  1  0.50000000  0.50136131  0.89431009  1
  C  C126  1  0.50000000  0.50130215  0.64683610  1
  C  C127  1  0.50000000  0.50129003  0.77057343  1
  C  C128  1  0.50000000  0.53299911  0.54547000  1
  C  C129  1  0.50000000  0.53256084  0.91333032  1
  C  C130  1  0.50000000  0.53209318  0.66754698  1
  C  C131  1  0.50000000  0.53205131  0.79099301  1
  C  C132  1  0.50000000  0.59389299  0.58566194  1
  C  C133  1  0.50000000  0.59383211  0.95583340  1
  C  C134  1  0.50000000  0.59384396  0.70900363  1
  C  C135  1  0.50000000  0.59396485  0.83204514  1
  C  C136  1  0.50000000  0.62462021  0.60572639  1
  C  C137  1  0.50000000  0.62422043  0.97598102  1
  C  C138  1  0.50000000  0.62456236  0.72933047  1
  C  C139  1  0.50000000  0.62455656  0.85275222  1
  C  C140  1  0.50000000  0.56300944  0.52477230  1
  C  C141  1  0.50000000  0.56331111  0.89328547  1
  C  C142  1  0.50000000  0.56313362  0.64750468  1
  C  C143  1  0.50000000  0.56293550  0.77046255  1
  C  C144  1  0.50000000  0.59382328  0.54394949  1
  C  C145  1  0.50000000  0.59388871  0.91412104  1
  C  C146  1  0.50000000  0.59395737  0.66772575  1
  C  C147  1  0.50000000  0.59383622  0.79076959  1
  C  C148  1  0.50000000  0.65532576  0.58477417  1
  C  C149  1  0.50000000  0.65498019  0.95661690  1
  C  C150  1  0.50000000  0.65543520  0.70861757  1
  C  C151  1  0.50000000  0.65554356  0.83247554  1
  C  C152  1  0.50000000  0.68632526  0.60471566  1
  C  C153  1  0.50000000  0.68565062  0.97702051  1
  C  C154  1  0.50000000  0.68610609  0.72905274  1
  C  C155  1  0.50000000  0.68625432  0.85311011  1
  C  C156  1  0.50000000  0.62420014  0.52379841  1
  C  C157  1  0.50000000  0.62462132  0.89405262  1
  C  C158  1  0.50000000  0.62454959  0.64702741  1
  C  C159  1  0.50000000  0.62456392  0.77045601  1
  C  C160  1  0.50000000  0.65495980  0.54315540  1
  C  C161  1  0.50000000  0.65533934  0.91499744  1
  C  C162  1  0.50000000  0.65553152  0.66731872  1
  C  C163  1  0.50000000  0.65544448  0.79117888  1
  C  C164  1  0.50000000  0.71599828  0.58312360  1
  C  C165  1  0.50000000  0.71559676  0.95714652  1
  C  C166  1  0.50000000  0.71601507  0.70782626  1
  C  C167  1  0.50000000  0.71609765  0.83181036  1
  C  C168  1  0.50000000  0.68562755  0.52274427  1
  C  C169  1  0.50000000  0.68634737  0.89507879  1
  C  C170  1  0.50000000  0.68624423  0.64669011  1
  C  C171  1  0.50000000  0.68611598  0.77075876  1
  C  C172  1  0.50000000  0.71557146  0.54263485  1
  C  C173  1  0.50000000  0.71602181  0.91666549  1
  C  C174  1  0.50000000  0.71609442  0.66798658  1
  C  C175  1  0.50000000  0.71603228  0.79196837  1
  H  H176  1  0.50000000  0.25914997  0.09452804  1
  H  H177  1  0.50000000  0.26324419  0.59892854  1
  H  H178  1  0.50000000  0.26090495  0.47485752  1
  H  H179  1  0.50000000  0.26220543  0.97035609  1
  H  H180  1  0.50000000  0.25745480  0.22111580  1
  H  H181  1  0.50000000  0.26350634  0.72252737  1
  H  H182  1  0.50000000  0.25804270  0.34839501  1
  H  H183  1  0.50000000  0.26348412  0.84697577  1
  H  H184  1  0.50000000  0.26091409  0.02512397  1
  H  H185  1  0.50000000  0.26218647  0.52954956  1
  H  H186  1  0.50000000  0.25909554  0.40533155  1
  H  H187  1  0.50000000  0.26323442  0.90097194  1
  H  H188  1  0.50000000  0.25809447  0.15150000  1
  H  H189  1  0.50000000  0.26351828  0.65286600  1
  H  H190  1  0.50000000  0.25741912  0.27865741  1
  H  H191  1  0.50000000  0.26351067  0.77727897  1
  H  H192  1  0.50000000  0.74003570  0.59789020  1
  H  H193  1  0.50000000  0.73913278  0.97311293  1
  H  H194  1  0.50000000  0.73985261  0.72293794  1
  H  H195  1  0.50000000  0.74005791  0.84670377  1
  H  H196  1  0.50000000  0.73913202  0.52671571  1
  H  H197  1  0.50000000  0.74004529  0.90188919  1
  H  H198  1  0.50000000  0.74007721  0.65313723  1
  H  H199  1  0.50000000  0.73989415  0.77690017  1
  H  H200  1  0.50000000  0.48867461  0.10201993  1
  H  H201  1  0.50000000  0.49159268  0.46235800  1
  H  H202  1  0.50000000  0.48802013  0.22358795  1
  H  H203  1  0.50000000  0.48850270  0.34567889  1
  H  H204  1  0.50000000  0.50680409  0.00450503  1
  H  H205  1  0.50000000  0.49172210  0.03766207  1
  H  H206  1  0.50000000  0.48867304  0.39788838  1
  H  H207  1  0.50000000  0.48854890  0.15419487  1
  H  H208  1  0.50000000  0.48798792  0.27629317  1
  H  H209  1  0.50000000  0.56243103  0.00671305  1
  H  H210  1  0.50000000  0.50687429  0.49532860  1
  H  H211  1  0.50000000  0.62395600  0.00764505  1
  H  H212  1  0.50000000  0.56241484  0.49306635  1
  H  H213  1  0.50000000  0.68539544  0.00867019  1
  H  H214  1  0.50000000  0.62394460  0.49214077  1
  H  H215  1  0.50000000  0.68533497  0.49108865  1
