# generated using pymatgen
data_H5C22
_symmetry_space_group_name_H-M   'P 1'
_cell_length_a   20.00000000
_cell_length_b   40.19450000
_cell_length_c   34.76911103
_cell_angle_alpha   90.00000000
_cell_angle_beta   90.00000000
_cell_angle_gamma   90.00000000
_symmetry_Int_Tables_number   1
_chemical_formula_structural   H5C22
_chemical_formula_sum   'H40 C176'
_cell_volume   27950.54066267
_cell_formula_units_Z   8
loop_
 _symmetry_equiv_pos_site_id
 _symmetry_equiv_pos_as_xyz
  1  'x, y, z'
loop_
 _atom_site_type_symbol
 _atom_site_label
 _atom_site_symmetry_multiplicity
 _atom_site_fract_x
 _atom_site_fract_y
 _atom_site_fract_z
 _atom_site_occupancy
  C  C0  1  0.50000000  0.28447195  0.58873745  1
  C  C1  1  0.50000000  0.28288712  0.95074124  1
  C  C2  1  0.50000000  0.28698920  0.70894542  1
  C  C3  1  0.50000000  0.28679429  0.83057982  1
  C  C4  1  0.50000000  0.31565586  0.60671363  1
  C  C5  1  0.50000000  0.31198100  0.97204571  1
  C  C6  1  0.50000000  0.31715638  0.72937826  1
  C  C7  1  0.50000000  0.31659447  0.85187695  1
  C  C8  1  0.50000000  0.28280469  0.54925891  1
  C  C9  1  0.50000000  0.28454992  0.91126487  1
  C  C10  1  0.50000000  0.28671761  0.66952672  1
  C  C11  1  0.50000000  0.28701188  0.79116668  1
  C  C12  1  0.50000000  0.34790413  0.08454190  1
  C  C13  1  0.50000000  0.34594882  0.58481800  1
  C  C14  1  0.50000000  0.34776390  0.45454850  1
  C  C15  1  0.50000000  0.34461722  0.95658957  1
  C  C16  1  0.50000000  0.34694828  0.20764270  1
  C  C17  1  0.50000000  0.34763387  0.70880001  1
  C  C18  1  0.50000000  0.34705841  0.33182660  1
  C  C19  1  0.50000000  0.34743489  0.83233970  1
  C  C20  1  0.50000000  0.37764743  0.10545983  1
  C  C21  1  0.50000000  0.37730884  0.60471785  1
  C  C22  1  0.50000000  0.37646740  0.47866704  1
  C  C23  1  0.50000000  0.37575018  0.97918313  1
  C  C24  1  0.50000000  0.37691781  0.22917272  1
  C  C25  1  0.50000000  0.37838468  0.72933923  1
  C  C26  1  0.50000000  0.37721366  0.35306571  1
  C  C27  1  0.50000000  0.37788754  0.85379151  1
  C  C28  1  0.50000000  0.31188918  0.52792899  1
  C  C29  1  0.50000000  0.31574302  0.89329499  1
  C  C30  1  0.50000000  0.31650041  0.64815228  1
  C  C31  1  0.50000000  0.31715758  0.77066095  1
  C  C32  1  0.50000000  0.34787645  0.04526997  1
  C  C33  1  0.50000000  0.34452183  0.54338084  1
  C  C34  1  0.50000000  0.34787571  0.41526464  1
  C  C35  1  0.50000000  0.34603889  0.91515937  1
  C  C36  1  0.50000000  0.34706530  0.16809276  1
  C  C37  1  0.50000000  0.34737348  0.66763611  1
  C  C38  1  0.50000000  0.34693873  0.29228131  1
  C  C39  1  0.50000000  0.34765972  0.79118278  1
  C  C40  1  0.50000000  0.40763893  0.08373197  1
  C  C41  1  0.50000000  0.40754198  0.58316843  1
  C  C42  1  0.50000000  0.40740057  0.45803820  1
  C  C43  1  0.50000000  0.40688659  0.95872948  1
  C  C44  1  0.50000000  0.40754017  0.20865115  1
  C  C45  1  0.50000000  0.40867756  0.70826708  1
  C  C46  1  0.50000000  0.40763544  0.33261834  1
  C  C47  1  0.50000000  0.40851493  0.83333664  1
  C  C48  1  0.50000000  0.43814314  0.10473873  1
  C  C49  1  0.50000000  0.43863372  0.60377349  1
  C  C50  1  0.50000000  0.43818110  0.47902099  1
  C  C51  1  0.50000000  0.43824547  0.97951341  1
  C  C52  1  0.50000000  0.43818719  0.22948932  1
  C  C53  1  0.50000000  0.43915441  0.72917312  1
  C  C54  1  0.50000000  0.43811971  0.35387141  1
  C  C55  1  0.50000000  0.43897349  0.85441016  1
  C  C56  1  0.50000000  0.37658732  0.02121785  1
  C  C57  1  0.50000000  0.37564135  0.52072585  1
  C  C58  1  0.50000000  0.37763847  0.39441845  1
  C  C59  1  0.50000000  0.37738619  0.89522887  1
  C  C60  1  0.50000000  0.37722089  0.14682958  1
  C  C61  1  0.50000000  0.37782179  0.64615528  1
  C  C62  1  0.50000000  0.37691241  0.27073035  1
  C  C63  1  0.50000000  0.37839625  0.77060874  1
  C  C64  1  0.50000000  0.40748457  0.04188009  1
  C  C65  1  0.50000000  0.40678485  0.54117467  1
  C  C66  1  0.50000000  0.40760298  0.41617426  1
  C  C67  1  0.50000000  0.40763132  0.91674513  1
  C  C68  1  0.50000000  0.40765749  0.16726637  1
  C  C69  1  0.50000000  0.40846564  0.66658346  1
  C  C70  1  0.50000000  0.40753902  0.29124926  1
  C  C71  1  0.50000000  0.40870534  0.79165578  1
  C  C72  1  0.50000000  0.46868185  0.08380457  1
  C  C73  1  0.50000000  0.46943473  0.58316005  1
  C  C74  1  0.50000000  0.46894664  0.45794412  1
  C  C75  1  0.50000000  0.46965713  0.95874233  1
  C  C76  1  0.50000000  0.46884579  0.20870556  1
  C  C77  1  0.50000000  0.46964114  0.70824823  1
  C  C78  1  0.50000000  0.46860592  0.33256919  1
  C  C79  1  0.50000000  0.46953000  0.83316203  1
  C  C80  1  0.50000000  0.49855269  0.10569214  1
  C  C81  1  0.50000000  0.49998670  0.60469878  1
  C  C82  1  0.50000000  0.49992741  0.47845553  1
  C  C83  1  0.50000000  0.50056295  0.97936217  1
  C  C84  1  0.50000000  0.49951319  0.22920936  1
  C  C85  1  0.50000000  0.50018549  0.72918229  1
  C  C86  1  0.50000000  0.49899875  0.35295541  1
  C  C87  1  0.50000000  0.50016716  0.85363630  1
  C  C88  1  0.50000000  0.43827008  0.02088716  1
  C  C89  1  0.50000000  0.43815130  0.52038717  1
  C  C90  1  0.50000000  0.43811357  0.39518855  1
  C  C91  1  0.50000000  0.43871114  0.89611739  1
  C  C92  1  0.50000000  0.43815182  0.14604589  1
  C  C93  1  0.50000000  0.43891212  0.64548396  1
  C  C94  1  0.50000000  0.43818400  0.27040696  1
  C  C95  1  0.50000000  0.43916789  0.77072727  1
  C  C96  1  0.50000000  0.46901800  0.04198146  1
  C  C97  1  0.50000000  0.46957425  0.54115907  1
  C  C98  1  0.50000000  0.46862660  0.41612534  1
  C  C99  1  0.50000000  0.46951150  0.91672780  1
  C  C100  1  0.50000000  0.46864802  0.16734180  1
  C  C101  1  0.50000000  0.46947720  0.66671753  1
  C  C102  1  0.50000000  0.46883438  0.29121452  1
  C  C103  1  0.50000000  0.46966729  0.79163216  1
  C  C104  1  0.50000000  0.52830310  0.08501736  1
  C  C105  1  0.50000000  0.53086796  0.58480775  1
  C  C106  1  0.50000000  0.52851970  0.45409847  1
  C  C107  1  0.50000000  0.53151593  0.95674351  1
  C  C108  1  0.50000000  0.52949327  0.20767352  1
  C  C109  1  0.50000000  0.53083293  0.70863003  1
  C  C110  1  0.50000000  0.52923369  0.33184980  1
  C  C111  1  0.50000000  0.53077097  0.83247576  1
  C  C112  1  0.50000000  0.56157369  0.60624513  1
  C  C113  1  0.50000000  0.56316254  0.97286352  1
  C  C114  1  0.50000000  0.56163124  0.72933261  1
  C  C115  1  0.50000000  0.56163519  0.85253924  1
  C  C116  1  0.50000000  0.49999474  0.02144661  1
  C  C117  1  0.50000000  0.50047742  0.52053621  1
  C  C118  1  0.50000000  0.49848961  0.39423666  1
  C  C119  1  0.50000000  0.50006452  0.89518565  1
  C  C120  1  0.50000000  0.49906113  0.14698040  1
  C  C121  1  0.50000000  0.50011465  0.64623881  1
  C  C122  1  0.50000000  0.49951632  0.27074740  1
  C  C123  1  0.50000000  0.50019552  0.77067861  1
  C  C124  1  0.50000000  0.52858610  0.04579918  1
  C  C125  1  0.50000000  0.53142254  0.54314606  1
  C  C126  1  0.50000000  0.52824821  0.41488269  1
  C  C127  1  0.50000000  0.53094910  0.91507432  1
  C  C128  1  0.50000000  0.52927430  0.16814037  1
  C  C129  1  0.50000000  0.53072989  0.66738323  1
  C  C130  1  0.50000000  0.52948118  0.29232466  1
  C  C131  1  0.50000000  0.53085244  0.79121813  1
  C  C132  1  0.50000000  0.59293951  0.58737721  1
  C  C133  1  0.50000000  0.59338072  0.95315596  1
  C  C134  1  0.50000000  0.59248281  0.70902743  1
  C  C135  1  0.50000000  0.59255177  0.83197918  1
  C  C136  1  0.50000000  0.62370037  0.60706027  1
  C  C137  1  0.50000000  0.62320300  0.97399944  1
  C  C138  1  0.50000000  0.62326781  0.72940568  1
  C  C139  1  0.50000000  0.62348580  0.85189300  1
  C  C140  1  0.50000000  0.56305650  0.52703770  1
  C  C141  1  0.50000000  0.56164793  0.89361666  1
  C  C142  1  0.50000000  0.56159156  0.64731206  1
  C  C143  1  0.50000000  0.56163693  0.77049835  1
  C  C144  1  0.50000000  0.59328485  0.54669852  1
  C  C145  1  0.50000000  0.59301969  0.91246803  1
  C  C146  1  0.50000000  0.59252232  0.66784011  1
  C  C147  1  0.50000000  0.59249128  0.79078881  1
  C  C148  1  0.50000000  0.65426138  0.58597031  1
  C  C149  1  0.50000000  0.65402092  0.95516401  1
  C  C150  1  0.50000000  0.65431243  0.70898266  1
  C  C151  1  0.50000000  0.65446380  0.83181017  1
  C  C152  1  0.50000000  0.68533027  0.60558641  1
  C  C153  1  0.50000000  0.68444981  0.97583008  1
  C  C154  1  0.50000000  0.68508026  0.72914753  1
  C  C155  1  0.50000000  0.68518803  0.85243306  1
  C  C156  1  0.50000000  0.62308529  0.52580685  1
  C  C157  1  0.50000000  0.62375914  0.89274083  1
  C  C158  1  0.50000000  0.62344768  0.64790248  1
  C  C159  1  0.50000000  0.62327113  0.77039146  1
  C  C160  1  0.50000000  0.65392915  0.54460153  1
  C  C161  1  0.50000000  0.65434126  0.91379614  1
  C  C162  1  0.50000000  0.65443085  0.66796469  1
  C  C163  1  0.50000000  0.65432433  0.79078623  1
  C  C164  1  0.50000000  0.71489148  0.58387223  1
  C  C165  1  0.50000000  0.71447797  0.95624035  1
  C  C166  1  0.50000000  0.71500673  0.70800578  1
  C  C167  1  0.50000000  0.71504291  0.83134080  1
  C  C168  1  0.50000000  0.68436369  0.52393962  1
  C  C169  1  0.50000000  0.68540947  0.89417165  1
  C  C170  1  0.50000000  0.68513920  0.64732464  1
  C  C171  1  0.50000000  0.68507811  0.77057742  1
  C  C172  1  0.50000000  0.71438974  0.54353675  1
  C  C173  1  0.50000000  0.71497830  0.91589511  1
  C  C174  1  0.50000000  0.71502784  0.66836347  1
  C  C175  1  0.50000000  0.71499701  0.79171413  1
  H  H176  1  0.50000000  0.26145074  0.60523327  1
  H  H177  1  0.50000000  0.25887546  0.96570101  1
  H  H178  1  0.50000000  0.26321961  0.72407504  1
  H  H179  1  0.50000000  0.26267196  0.84488413  1
  H  H180  1  0.50000000  0.25876303  0.53437358  1
  H  H181  1  0.50000000  0.26155750  0.89470566  1
  H  H182  1  0.50000000  0.26253669  0.65535342  1
  H  H183  1  0.50000000  0.26317495  0.77619864  1
  H  H184  1  0.50000000  0.73905047  0.59827973  1
  H  H185  1  0.50000000  0.73801902  0.97218895  1
  H  H186  1  0.50000000  0.73890380  0.72294031  1
  H  H187  1  0.50000000  0.73895194  0.84625960  1
  H  H188  1  0.50000000  0.73797982  0.52771420  1
  H  H189  1  0.50000000  0.73913557  0.90148825  1
  H  H190  1  0.50000000  0.73887524  0.65328934  1
  H  H191  1  0.50000000  0.73891449  0.77684414  1
  H  H192  1  0.50000000  0.30666828  0.00213671  1
  H  H193  1  0.50000000  0.32375878  0.09896127  1
  H  H194  1  0.50000000  0.32298669  0.46553225  1
  H  H195  1  0.50000000  0.32298019  0.22245049  1
  H  H196  1  0.50000000  0.32317678  0.34679060  1
  H  H197  1  0.50000000  0.30663546  0.49782355  1
  H  H198  1  0.50000000  0.32314653  0.03418256  1
  H  H199  1  0.50000000  0.32381188  0.40065541  1
  H  H200  1  0.50000000  0.32314244  0.15321418  1
  H  H201  1  0.50000000  0.32295493  0.27751533  1
  H  H202  1  0.50000000  0.55233927  0.09962088  1
  H  H203  1  0.50000000  0.55357123  0.46417446  1
  H  H204  1  0.50000000  0.55350667  0.22239940  1
  H  H205  1  0.50000000  0.55307631  0.34688309  1
  H  H206  1  0.50000000  0.56776012  0.00297326  1
  H  H207  1  0.50000000  0.55364413  0.03574930  1
  H  H208  1  0.50000000  0.55226271  0.40021239  1
  H  H209  1  0.50000000  0.55314070  0.15316100  1
  H  H210  1  0.50000000  0.55352621  0.27768238  1
  H  H211  1  0.50000000  0.62228520  0.00552401  1
  H  H212  1  0.50000000  0.56766699  0.49695779  1
  H  H213  1  0.50000000  0.68363041  0.00734491  1
  H  H214  1  0.50000000  0.62207335  0.49427814  1
  H  H215  1  0.50000000  0.68353854  0.49242851  1
