# generated using pymatgen
data_H5C22
_symmetry_space_group_name_H-M   'P 1'
_cell_length_a   20.00000000
_cell_length_b   40.19450000
_cell_length_c   34.79954600
_cell_angle_alpha   90.00000000
_cell_angle_beta   90.00000000
_cell_angle_gamma   90.00000000
_symmetry_Int_Tables_number   1
_chemical_formula_structural   H5C22
_chemical_formula_sum   'H40 C176'
_cell_volume   27975.00703265
_cell_formula_units_Z   8
loop_
 _symmetry_equiv_pos_site_id
 _symmetry_equiv_pos_as_xyz
  1  'x, y, z'
loop_
 _atom_site_type_symbol
 _atom_site_label
 _atom_site_symmetry_multiplicity
 _atom_site_fract_x
 _atom_site_fract_y
 _atom_site_fract_z
 _atom_site_occupancy
  C  C0  1  0.50000000  0.28473981  0.58582908  1
  C  C1  1  0.50000000  0.28462715  0.95425023  1
  C  C2  1  0.50000000  0.28576414  0.70885660  1
  C  C3  1  0.50000000  0.28548445  0.83050731  1
  C  C4  1  0.50000000  0.31454087  0.60704909  1
  C  C5  1  0.50000000  0.31458344  0.97387710  1
  C  C6  1  0.50000000  0.31598906  0.72932698  1
  C  C7  1  0.50000000  0.31528172  0.85155070  1
  C  C8  1  0.50000000  0.28469886  0.54559761  1
  C  C9  1  0.50000000  0.28469471  0.91401683  1
  C  C10  1  0.50000000  0.28549142  0.66942347  1
  C  C11  1  0.50000000  0.28576781  0.79108342  1
  C  C12  1  0.50000000  0.34543715  0.58732790  1
  C  C13  1  0.50000000  0.34492279  0.95315616  1
  C  C14  1  0.50000000  0.34666627  0.70897564  1
  C  C15  1  0.50000000  0.34641177  0.83195399  1
  C  C16  1  0.50000000  0.37700780  0.60621230  1
  C  C17  1  0.50000000  0.37513857  0.97284532  1
  C  C18  1  0.50000000  0.37761759  0.72939641  1
  C  C19  1  0.50000000  0.37733992  0.85262871  1
  C  C20  1  0.50000000  0.31464954  0.52598543  1
  C  C21  1  0.50000000  0.31453088  0.89287421  1
  C  C22  1  0.50000000  0.31528562  0.64837216  1
  C  C23  1  0.50000000  0.31597693  0.77058427  1
  C  C24  1  0.50000000  0.34493784  0.54679896  1
  C  C25  1  0.50000000  0.34543012  0.91261291  1
  C  C26  1  0.50000000  0.34642437  0.66794723  1
  C  C27  1  0.50000000  0.34665723  0.79092223  1
  C  C28  1  0.50000000  0.40994863  0.08502820  1
  C  C29  1  0.50000000  0.40757504  0.58484697  1
  C  C30  1  0.50000000  0.40971647  0.45408619  1
  C  C31  1  0.50000000  0.40681315  0.95670117  1
  C  C32  1  0.50000000  0.40874806  0.20769446  1
  C  C33  1  0.50000000  0.40821320  0.70869801  1
  C  C34  1  0.50000000  0.40891011  0.33179286  1
  C  C35  1  0.50000000  0.40811359  0.83258719  1
  C  C36  1  0.50000000  0.43965862  0.10574731  1
  C  C37  1  0.50000000  0.43861469  0.60471283  1
  C  C38  1  0.50000000  0.43830635  0.47843379  1
  C  C39  1  0.50000000  0.43772809  0.97937926  1
  C  C40  1  0.50000000  0.43872011  0.22922040  1
  C  C41  1  0.50000000  0.43890822  0.72922726  1
  C  C42  1  0.50000000  0.43914300  0.35292103  1
  C  C43  1  0.50000000  0.43872162  0.85369390  1
  C  C44  1  0.50000000  0.37518178  0.52715948  1
  C  C45  1  0.50000000  0.37698494  0.89369565  1
  C  C46  1  0.50000000  0.37735301  0.64726810  1
  C  C47  1  0.50000000  0.37760982  0.77048815  1
  C  C48  1  0.50000000  0.40968379  0.04584717  1
  C  C49  1  0.50000000  0.40689523  0.54322490  1
  C  C50  1  0.50000000  0.40994787  0.41489951  1
  C  C51  1  0.50000000  0.40754753  0.91506111  1
  C  C52  1  0.50000000  0.40890822  0.16818589  1
  C  C53  1  0.50000000  0.40813109  0.66729223  1
  C  C54  1  0.50000000  0.40874273  0.29227991  1
  C  C55  1  0.50000000  0.40820394  0.79117896  1
  C  C56  1  0.50000000  0.46951521  0.08386902  1
  C  C57  1  0.50000000  0.46908717  0.58313544  1
  C  C58  1  0.50000000  0.46925972  0.45783821  1
  C  C59  1  0.50000000  0.46867001  0.95877421  1
  C  C60  1  0.50000000  0.46936056  0.20872210  1
  C  C61  1  0.50000000  0.46948700  0.70823812  1
  C  C62  1  0.50000000  0.46953755  0.33252586  1
  C  C63  1  0.50000000  0.46946489  0.83319717  1
  C  C64  1  0.50000000  0.49999271  0.10482473  1
  C  C65  1  0.50000000  0.50000613  0.60374981  1
  C  C66  1  0.50000000  0.50002106  0.47889144  1
  C  C67  1  0.50000000  0.49998794  0.97959258  1
  C  C68  1  0.50000000  0.49998620  0.22954188  1
  C  C69  1  0.50000000  0.50000519  0.72913065  1
  C  C70  1  0.50000000  0.50000620  0.35377672  1
  C  C71  1  0.50000000  0.49999838  0.85432071  1
  C  C72  1  0.50000000  0.43825659  0.02145650  1
  C  C73  1  0.50000000  0.43778773  0.52050945  1
  C  C74  1  0.50000000  0.43967006  0.39418508  1
  C  C75  1  0.50000000  0.43860909  0.89515805  1
  C  C76  1  0.50000000  0.43912700  0.14702081  1
  C  C77  1  0.50000000  0.43873865  0.64618431  1
  C  C78  1  0.50000000  0.43871537  0.27073501  1
  C  C79  1  0.50000000  0.43890510  0.77064309  1
  C  C80  1  0.50000000  0.46922967  0.04204197  1
  C  C81  1  0.50000000  0.46872109  0.54110880  1
  C  C82  1  0.50000000  0.46953813  0.41602509  1
  C  C83  1  0.50000000  0.46906783  0.91674582  1
  C  C84  1  0.50000000  0.46953298  0.16739456  1
  C  C85  1  0.50000000  0.46947390  0.66668453  1
  C  C86  1  0.50000000  0.46936496  0.29120901  1
  C  C87  1  0.50000000  0.46948032  0.79164141  1
  C  C88  1  0.50000000  0.53047242  0.08387106  1
  C  C89  1  0.50000000  0.53092945  0.58313219  1
  C  C90  1  0.50000000  0.53077750  0.45783535  1
  C  C91  1  0.50000000  0.53130152  0.95877967  1
  C  C92  1  0.50000000  0.53061602  0.20872813  1
  C  C93  1  0.50000000  0.53052374  0.70824215  1
  C  C94  1  0.50000000  0.53047406  0.33252085  1
  C  C95  1  0.50000000  0.53053736  0.83320786  1
  C  C96  1  0.50000000  0.56032429  0.10574775  1
  C  C97  1  0.50000000  0.56139986  0.60471243  1
  C  C98  1  0.50000000  0.56173044  0.47842879  1
  C  C99  1  0.50000000  0.56224533  0.97937797  1
  C  C100  1  0.50000000  0.56125058  0.22921822  1
  C  C101  1  0.50000000  0.56109690  0.72924069  1
  C  C102  1  0.50000000  0.56087048  0.35290948  1
  C  C103  1  0.50000000  0.56127488  0.85371226  1
  C  C104  1  0.50000000  0.50000148  0.02098959  1
  C  C105  1  0.50000000  0.50001847  0.52028959  1
  C  C106  1  0.50000000  0.50001532  0.39506265  1
  C  C107  1  0.50000000  0.49999596  0.89613344  1
  C  C108  1  0.50000000  0.49999527  0.14611855  1
  C  C109  1  0.50000000  0.50000746  0.64556163  1
  C  C110  1  0.50000000  0.50000176  0.27039461  1
  C  C111  1  0.50000000  0.50000356  0.77075260  1
  C  C112  1  0.50000000  0.53077052  0.04204428  1
  C  C113  1  0.50000000  0.53131300  0.54110734  1
  C  C114  1  0.50000000  0.53049201  0.41601926  1
  C  C115  1  0.50000000  0.53091947  0.91675631  1
  C  C116  1  0.50000000  0.53045095  0.16739711  1
  C  C117  1  0.50000000  0.53053950  0.66668557  1
  C  C118  1  0.50000000  0.53063212  0.29121116  1
  C  C119  1  0.50000000  0.53052282  0.79165203  1
  C  C120  1  0.50000000  0.59004259  0.08503750  1
  C  C121  1  0.50000000  0.59244256  0.58485401  1
  C  C122  1  0.50000000  0.59031993  0.45406858  1
  C  C123  1  0.50000000  0.59314713  0.95666682  1
  C  C124  1  0.50000000  0.59122480  0.20769231  1
  C  C125  1  0.50000000  0.59179287  0.70871494  1
  C  C126  1  0.50000000  0.59110390  0.33177199  1
  C  C127  1  0.50000000  0.59188159  0.83260331  1
  C  C128  1  0.50000000  0.62300921  0.60623166  1
  C  C129  1  0.50000000  0.62481699  0.97283306  1
  C  C130  1  0.50000000  0.62238375  0.72941753  1
  C  C131  1  0.50000000  0.62265631  0.85263476  1
  C  C132  1  0.50000000  0.56174098  0.02145746  1
  C  C133  1  0.50000000  0.56224790  0.52050806  1
  C  C134  1  0.50000000  0.56035628  0.39417266  1
  C  C135  1  0.50000000  0.56139165  0.89518892  1
  C  C136  1  0.50000000  0.56085542  0.14702619  1
  C  C137  1  0.50000000  0.56127113  0.64618205  1
  C  C138  1  0.50000000  0.56126864  0.27074471  1
  C  C139  1  0.50000000  0.56109882  0.77065535  1
  C  C140  1  0.50000000  0.59031903  0.04584984  1
  C  C141  1  0.50000000  0.59313357  0.54323239  1
  C  C142  1  0.50000000  0.59008436  0.41488324  1
  C  C143  1  0.50000000  0.59244224  0.91505877  1
  C  C144  1  0.50000000  0.59107916  0.16818205  1
  C  C145  1  0.50000000  0.59187593  0.66730616  1
  C  C146  1  0.50000000  0.59125586  0.29226245  1
  C  C147  1  0.50000000  0.59179519  0.79119660  1
  C  C148  1  0.50000000  0.65458012  0.58734535  1
  C  C149  1  0.50000000  0.65504458  0.95316577  1
  C  C150  1  0.50000000  0.65333986  0.70900387  1
  C  C151  1  0.50000000  0.65358342  0.83196829  1
  C  C152  1  0.50000000  0.68547559  0.60707415  1
  C  C153  1  0.50000000  0.68537777  0.97389797  1
  C  C154  1  0.50000000  0.68401401  0.72935544  1
  C  C155  1  0.50000000  0.68470524  0.85157521  1
  C  C156  1  0.50000000  0.62484512  0.52716180  1
  C  C157  1  0.50000000  0.62300837  0.89369715  1
  C  C158  1  0.50000000  0.62265926  0.64729011  1
  C  C159  1  0.50000000  0.62239204  0.77050840  1
  C  C160  1  0.50000000  0.65508634  0.54681558  1
  C  C161  1  0.50000000  0.65455268  0.91262375  1
  C  C162  1  0.50000000  0.65358682  0.66797414  1
  C  C163  1  0.50000000  0.65334272  0.79094074  1
  C  C164  1  0.50000000  0.71527777  0.58586112  1
  C  C165  1  0.50000000  0.71533335  0.95427572  1
  C  C166  1  0.50000000  0.71423597  0.70888747  1
  C  C167  1  0.50000000  0.71450290  0.83053848  1
  C  C168  1  0.50000000  0.68537710  0.52601504  1
  C  C169  1  0.50000000  0.68545351  0.89289528  1
  C  C170  1  0.50000000  0.68472593  0.64839792  1
  C  C171  1  0.50000000  0.68402334  0.77060830  1
  C  C172  1  0.50000000  0.71532894  0.54563372  1
  C  C173  1  0.50000000  0.71528167  0.91404440  1
  C  C174  1  0.50000000  0.71452025  0.66945361  1
  C  C175  1  0.50000000  0.71422916  0.79111568  1
  H  H176  1  0.50000000  0.26078808  0.60063535  1
  H  H177  1  0.50000000  0.26098896  0.96989492  1
  H  H178  1  0.50000000  0.26196784  0.72395350  1
  H  H179  1  0.50000000  0.26158825  0.84543870  1
  H  H180  1  0.50000000  0.26108704  0.52989207  1
  H  H181  1  0.50000000  0.26078329  0.89909947  1
  H  H182  1  0.50000000  0.26162727  0.65442880  1
  H  H183  1  0.50000000  0.26194336  0.77606468  1
  H  H184  1  0.50000000  0.73923288  0.60066474  1
  H  H185  1  0.50000000  0.73896424  0.96992828  1
  H  H186  1  0.50000000  0.73802592  0.72399515  1
  H  H187  1  0.50000000  0.73839755  0.84546755  1
  H  H188  1  0.50000000  0.73894015  0.52993223  1
  H  H189  1  0.50000000  0.73919858  0.89913967  1
  H  H190  1  0.50000000  0.73838898  0.65447517  1
  H  H191  1  0.50000000  0.73805810  0.77610802  1
  H  H192  1  0.50000000  0.31528423  0.00537307  1
  H  H193  1  0.50000000  0.37090420  0.00298313  1
  H  H194  1  0.50000000  0.31537138  0.49448693  1
  H  H195  1  0.50000000  0.38588552  0.09956537  1
  H  H196  1  0.50000000  0.38467168  0.46416292  1
  H  H197  1  0.50000000  0.38477310  0.22248540  1
  H  H198  1  0.50000000  0.38502474  0.34676539  1
  H  H199  1  0.50000000  0.37079971  0.49706159  1
  H  H200  1  0.50000000  0.38456327  0.03598293  1
  H  H201  1  0.50000000  0.38591777  0.40027090  1
  H  H202  1  0.50000000  0.38497145  0.15333949  1
  H  H203  1  0.50000000  0.38478370  0.27745187  1
  H  H204  1  0.50000000  0.61409466  0.09958457  1
  H  H205  1  0.50000000  0.61537023  0.46413156  1
  H  H206  1  0.50000000  0.61517091  0.22251293  1
  H  H207  1  0.50000000  0.61499214  0.34673202  1
  H  H208  1  0.50000000  0.62902572  0.00297050  1
  H  H209  1  0.50000000  0.61545213  0.03603055  1
  H  H210  1  0.50000000  0.61410771  0.40024052  1
  H  H211  1  0.50000000  0.61502048  0.15337788  1
  H  H212  1  0.50000000  0.61520989  0.27743164  1
  H  H213  1  0.50000000  0.68468677  0.00539469  1
  H  H214  1  0.50000000  0.62919387  0.49705954  1
  H  H215  1  0.50000000  0.68465506  0.49452048  1
