# generated using pymatgen
data_H19C92
_symmetry_space_group_name_H-M   'P 1'
_cell_length_a   20.00000000
_cell_length_b   40.19450000
_cell_length_c   34.37899146
_cell_angle_alpha   90.00000000
_cell_angle_beta   90.00000000
_cell_angle_gamma   90.00000000
_symmetry_Int_Tables_number   1
_chemical_formula_structural   H19C92
_chemical_formula_sum   'H38 C184'
_cell_volume   27636.92744838
_cell_formula_units_Z   2
loop_
 _symmetry_equiv_pos_site_id
 _symmetry_equiv_pos_as_xyz
  1  'x, y, z'
loop_
 _atom_site_type_symbol
 _atom_site_label
 _atom_site_symmetry_multiplicity
 _atom_site_fract_x
 _atom_site_fract_y
 _atom_site_fract_z
 _atom_site_occupancy
  C  C0  1  0.50000000  0.28539560  0.08252150  1
  C  C1  1  0.50000000  0.28541022  0.58261173  1
  C  C2  1  0.50000000  0.28528792  0.45734613  1
  C  C3  1  0.50000000  0.28539284  0.95723997  1
  C  C4  1  0.50000000  0.28554752  0.20741696  1
  C  C5  1  0.50000000  0.28565652  0.70743978  1
  C  C6  1  0.50000000  0.28551834  0.33241111  1
  C  C7  1  0.50000000  0.28565415  0.83236428  1
  C  C8  1  0.50000000  0.31547989  0.10402270  1
  C  C9  1  0.50000000  0.31555270  0.60411279  1
  C  C10  1  0.50000000  0.31531507  0.47904218  1
  C  C11  1  0.50000000  0.31541430  0.97891965  1
  C  C12  1  0.50000000  0.31556135  0.22903452  1
  C  C13  1  0.50000000  0.31576528  0.72903406  1
  C  C14  1  0.50000000  0.31551787  0.35404225  1
  C  C15  1  0.50000000  0.31570109  0.85398790  1
  C  C16  1  0.50000000  0.28529242  0.04253236  1
  C  C17  1  0.50000000  0.28533760  0.54264604  1
  C  C18  1  0.50000000  0.28538163  0.41735483  1
  C  C19  1  0.50000000  0.28547916  0.91727761  1
  C  C20  1  0.50000000  0.28551673  0.16745117  1
  C  C21  1  0.50000000  0.28563772  0.66751302  1
  C  C22  1  0.50000000  0.28555466  0.29244470  1
  C  C23  1  0.50000000  0.28570502  0.79242139  1
  C  C24  1  0.50000000  0.34613729  0.08320848  1
  C  C25  1  0.50000000  0.34620286  0.58335939  1
  C  C26  1  0.50000000  0.34603527  0.45834770  1
  C  C27  1  0.50000000  0.34615356  0.95820509  1
  C  C28  1  0.50000000  0.34626490  0.20827874  1
  C  C29  1  0.50000000  0.34642955  0.70833389  1
  C  C30  1  0.50000000  0.34623869  0.33330882  1
  C  C31  1  0.50000000  0.34642822  0.83328644  1
  C  C32  1  0.50000000  0.37700008  0.10406624  1
  C  C33  1  0.50000000  0.37707696  0.60426704  1
  C  C34  1  0.50000000  0.37684494  0.47929293  1
  C  C35  1  0.50000000  0.37696318  0.97907277  1
  C  C36  1  0.50000000  0.37708925  0.22916119  1
  C  C37  1  0.50000000  0.37733045  0.72922803  1
  C  C38  1  0.50000000  0.37703565  0.35422094  1
  C  C39  1  0.50000000  0.37725276  0.85418808  1
  C  C40  1  0.50000000  0.31532410  0.02081085  1
  C  C41  1  0.50000000  0.31536446  0.52094242  1
  C  C42  1  0.50000000  0.31547184  0.39584100  1
  C  C43  1  0.50000000  0.31559663  0.89578374  1
  C  C44  1  0.50000000  0.31552062  0.14582675  1
  C  C45  1  0.50000000  0.31569543  0.64592876  1
  C  C46  1  0.50000000  0.31556331  0.27082690  1
  C  C47  1  0.50000000  0.31581093  0.77088565  1
  C  C48  1  0.50000000  0.34604006  0.04148557  1
  C  C49  1  0.50000000  0.34609941  0.54165528  1
  C  C50  1  0.50000000  0.34613790  0.41662938  1
  C  C51  1  0.50000000  0.34625947  0.91651230  1
  C  C52  1  0.50000000  0.34623761  0.16655506  1
  C  C53  1  0.50000000  0.34641118  0.66661378  1
  C  C54  1  0.50000000  0.34626396  0.29158886  1
  C  C55  1  0.50000000  0.34646703  0.79157208  1
  C  C56  1  0.50000000  0.40765226  0.08306320  1
  C  C57  1  0.50000000  0.40780084  0.58332324  1
  C  C58  1  0.50000000  0.40753971  0.45833870  1
  C  C59  1  0.50000000  0.40769407  0.95806049  1
  C  C60  1  0.50000000  0.40777369  0.20814460  1
  C  C61  1  0.50000000  0.40809213  0.70830546  1
  C  C62  1  0.50000000  0.40773490  0.33325226  1
  C  C63  1  0.50000000  0.40810217  0.83326712  1
  C  C64  1  0.50000000  0.43851146  0.10391586  1
  C  C65  1  0.50000000  0.43860795  0.60417961  1
  C  C66  1  0.50000000  0.43819345  0.47933750  1
  C  C67  1  0.50000000  0.43842292  0.97888063  1
  C  C68  1  0.50000000  0.43859090  0.22905138  1
  C  C69  1  0.50000000  0.43878405  0.72908982  1
  C  C70  1  0.50000000  0.43851793  0.35420256  1
  C  C71  1  0.50000000  0.43873488  0.85398960  1
  C  C72  1  0.50000000  0.37686466  0.02055060  1
  C  C73  1  0.50000000  0.37691283  0.52077059  1
  C  C74  1  0.50000000  0.37700317  0.39576510  1
  C  C75  1  0.50000000  0.37713366  0.89560192  1
  C  C76  1  0.50000000  0.37702912  0.14561495  1
  C  C77  1  0.50000000  0.37721419  0.64568607  1
  C  C78  1  0.50000000  0.37708679  0.27070336  1
  C  C79  1  0.50000000  0.37735025  0.77066252  1
  C  C80  1  0.50000000  0.40756163  0.04148996  1
  C  C81  1  0.50000000  0.40763162  0.54178954  1
  C  C82  1  0.50000000  0.40765275  0.41676549  1
  C  C83  1  0.50000000  0.40787027  0.91652515  1
  C  C84  1  0.50000000  0.40773090  0.16659574  1
  C  C85  1  0.50000000  0.40805815  0.66660888  1
  C  C86  1  0.50000000  0.40777771  0.29170481  1
  C  C87  1  0.50000000  0.40811962  0.79157214  1
  C  C88  1  0.50000000  0.46920088  0.08310330  1
  C  C89  1  0.50000000  0.46923729  0.58341481  1
  C  C90  1  0.50000000  0.46901205  0.45874650  1
  C  C91  1  0.50000000  0.46912808  0.95788933  1
  C  C92  1  0.50000000  0.46928764  0.20826319  1
  C  C93  1  0.50000000  0.46957463  0.70823399  1
  C  C94  1  0.50000000  0.46923446  0.33340934  1
  C  C95  1  0.50000000  0.46958349  0.83313641  1
  C  C96  1  0.50000000  0.49920855  0.10479764  1
  C  C97  1  0.50000000  0.50031323  0.60431415  1
  C  C98  1  0.50000000  0.49869353  0.48034084  1
  C  C99  1  0.50000000  0.49976890  0.97912818  1
  C  C100  1  0.50000000  0.49933177  0.22991788  1
  C  C101  1  0.50000000  0.50038768  0.72910136  1
  C  C102  1  0.50000000  0.49923014  0.35505384  1
  C  C103  1  0.50000000  0.50037845  0.85393980  1
  C  C104  1  0.50000000  0.43823072  0.02049858  1
  C  C105  1  0.50000000  0.43835225  0.52095886  1
  C  C106  1  0.50000000  0.43851241  0.39593238  1
  C  C107  1  0.50000000  0.43868713  0.89568531  1
  C  C108  1  0.50000000  0.43852025  0.14565838  1
  C  C109  1  0.50000000  0.43867960  0.64587824  1
  C  C110  1  0.50000000  0.43859785  0.27079515  1
  C  C111  1  0.50000000  0.43880121  0.77077574  1
  C  C112  1  0.50000000  0.46904660  0.04109916  1
  C  C113  1  0.50000000  0.46903478  0.54196944  1
  C  C114  1  0.50000000  0.46919673  0.41674137  1
  C  C115  1  0.50000000  0.46932711  0.91644817  1
  C  C116  1  0.50000000  0.46921641  0.16642438  1
  C  C117  1  0.50000000  0.46953292  0.66673220  1
  C  C118  1  0.50000000  0.46930721  0.29158179  1
  C  C119  1  0.50000000  0.46959974  0.79163457  1
  C  C120  1  0.50000000  0.53089914  0.58377133  1
  C  C121  1  0.50000000  0.53136820  0.95808212  1
  C  C122  1  0.50000000  0.53105808  0.70841673  1
  C  C123  1  0.50000000  0.53110995  0.83308805  1
  C  C124  1  0.50000000  0.56173330  0.60459259  1
  C  C125  1  0.50000000  0.56162928  0.97730466  1
  C  C126  1  0.50000000  0.56192485  0.72917039  1
  C  C127  1  0.50000000  0.56189081  0.85373088  1
  C  C128  1  0.50000000  0.49875282  0.01953422  1
  C  C129  1  0.50000000  0.49966601  0.52074008  1
  C  C130  1  0.50000000  0.49920972  0.39505706  1
  C  C131  1  0.50000000  0.50041079  0.89555836  1
  C  C132  1  0.50000000  0.49922223  0.14480111  1
  C  C133  1  0.50000000  0.50031226  0.64592894  1
  C  C134  1  0.50000000  0.49933546  0.26992182  1
  C  C135  1  0.50000000  0.50040710  0.77077269  1
  C  C136  1  0.50000000  0.53124650  0.54180268  1
  C  C137  1  0.50000000  0.53100846  0.91610402  1
  C  C138  1  0.50000000  0.53104561  0.66678931  1
  C  C139  1  0.50000000  0.53109181  0.79145845  1
  C  C140  1  0.50000000  0.59249422  0.58411689  1
  C  C141  1  0.50000000  0.59255851  0.95757098  1
  C  C142  1  0.50000000  0.59270244  0.70847747  1
  C  C143  1  0.50000000  0.59277705  0.83312034  1
  C  C144  1  0.50000000  0.62326541  0.60439817  1
  C  C145  1  0.50000000  0.62266389  0.97794656  1
  C  C146  1  0.50000000  0.62340845  0.72912554  1
  C  C147  1  0.50000000  0.62339916  0.85381363  1
  C  C148  1  0.50000000  0.56148524  0.52256914  1
  C  C149  1  0.50000000  0.56184844  0.89528378  1
  C  C150  1  0.50000000  0.56181035  0.64614216  1
  C  C151  1  0.50000000  0.56195133  0.77070199  1
  C  C152  1  0.50000000  0.59238914  0.54230925  1
  C  C153  1  0.50000000  0.59262918  0.91574494  1
  C  C154  1  0.50000000  0.59270448  0.66673330  1
  C  C155  1  0.50000000  0.59274561  0.79137799  1
  C  C156  1  0.50000000  0.65387817  0.58318400  1
  C  C157  1  0.50000000  0.65355544  0.95849102  1
  C  C158  1  0.50000000  0.65431708  0.70819656  1
  C  C159  1  0.50000000  0.65442652  0.83330346  1
  C  C160  1  0.50000000  0.68501140  0.60319155  1
  C  C161  1  0.50000000  0.68402804  0.97927897  1
  C  C162  1  0.50000000  0.68503248  0.72882195  1
  C  C163  1  0.50000000  0.68511614  0.85420309  1
  C  C164  1  0.50000000  0.62244534  0.52187946  1
  C  C165  1  0.50000000  0.62339201  0.89542871  1
  C  C166  1  0.50000000  0.62330626  0.64601487  1
  C  C167  1  0.50000000  0.62343858  0.77071276  1
  C  C168  1  0.50000000  0.65334353  0.54129557  1
  C  C169  1  0.50000000  0.65403900  0.91660189  1
  C  C170  1  0.50000000  0.65434197  0.66650720  1
  C  C171  1  0.50000000  0.65436511  0.79161895  1
  C  C172  1  0.50000000  0.71450388  0.58112544  1
  C  C173  1  0.50000000  0.71408095  0.95943475  1
  C  C174  1  0.50000000  0.71487337  0.70722816  1
  C  C175  1  0.50000000  0.71494589  0.83267921  1
  C  C176  1  0.50000000  0.68379485  0.52050036  1
  C  C177  1  0.50000000  0.68516442  0.89658166  1
  C  C178  1  0.50000000  0.68500475  0.64556956  1
  C  C179  1  0.50000000  0.68505941  0.77095382  1
  C  C180  1  0.50000000  0.71385130  0.54032655  1
  C  C181  1  0.50000000  0.71467238  0.91862979  1
  C  C182  1  0.50000000  0.71485353  0.66705436  1
  C  C183  1  0.50000000  0.71492678  0.79250269  1
  H  H184  1  0.50000000  0.26154941  0.09779163  1
  H  H185  1  0.50000000  0.26152561  0.59781890  1
  H  H186  1  0.50000000  0.26134686  0.47240261  1
  H  H187  1  0.50000000  0.26146717  0.97234226  1
  H  H188  1  0.50000000  0.26158014  0.22236519  1
  H  H189  1  0.50000000  0.26167691  0.72239248  1
  H  H190  1  0.50000000  0.26153124  0.34734559  1
  H  H191  1  0.50000000  0.26167406  0.84734308  1
  H  H192  1  0.50000000  0.26131452  0.02755602  1
  H  H193  1  0.50000000  0.26139511  0.52759678  1
  H  H194  1  0.50000000  0.26151451  0.40213239  1
  H  H195  1  0.50000000  0.26158900  0.90208475  1
  H  H196  1  0.50000000  0.26152909  0.15250822  1
  H  H197  1  0.50000000  0.26166352  0.65252832  1
  H  H198  1  0.50000000  0.26159052  0.27749474  1
  H  H199  1  0.50000000  0.26175305  0.77739687  1
  H  H200  1  0.50000000  0.73870493  0.59564006  1
  H  H201  1  0.50000000  0.73763194  0.97554949  1
  H  H202  1  0.50000000  0.73886583  0.72214219  1
  H  H203  1  0.50000000  0.73891006  0.84769377  1
  H  H204  1  0.50000000  0.73734572  0.52411530  1
  H  H205  1  0.50000000  0.73887903  0.90414441  1
  H  H206  1  0.50000000  0.73882571  0.65206181  1
  H  H207  1  0.50000000  0.73888795  0.77751623  1
  H  H208  1  0.50000000  0.52322063  0.08988403  1
  H  H209  1  0.50000000  0.52218232  0.46457292  1
  H  H210  1  0.50000000  0.52323040  0.21477913  1
  H  H211  1  0.50000000  0.52315363  0.33995729  1
  H  H212  1  0.50000000  0.56263716  0.00908511  1
  H  H213  1  0.50000000  0.52222715  0.03533456  1
  H  H214  1  0.50000000  0.52321380  0.40997852  1
  H  H215  1  0.50000000  0.52313214  0.15990955  1
  H  H216  1  0.50000000  0.52324161  0.28507036  1
  H  H217  1  0.50000000  0.62229870  0.00985537  1
  H  H218  1  0.50000000  0.56251813  0.49079271  1
  H  H219  1  0.50000000  0.68335477  0.01116920  1
  H  H220  1  0.50000000  0.62195935  0.48997692  1
  H  H221  1  0.50000000  0.68314935  0.48861896  1
