# generated using pymatgen
data_H19C92
_symmetry_space_group_name_H-M   'P 1'
_cell_length_a   20.00000000
_cell_length_b   40.19450000
_cell_length_c   34.50371153
_cell_angle_alpha   90.00000000
_cell_angle_beta   90.00000000
_cell_angle_gamma   90.00000000
_symmetry_Int_Tables_number   1
_chemical_formula_structural   H19C92
_chemical_formula_sum   'H38 C184'
_cell_volume   27737.18866087
_cell_formula_units_Z   2
loop_
 _symmetry_equiv_pos_site_id
 _symmetry_equiv_pos_as_xyz
  1  'x, y, z'
loop_
 _atom_site_type_symbol
 _atom_site_label
 _atom_site_symmetry_multiplicity
 _atom_site_fract_x
 _atom_site_fract_y
 _atom_site_fract_z
 _atom_site_occupancy
  C  C0  1  0.50000000  0.28357610  0.58800345  1
  C  C1  1  0.50000000  0.28200410  0.95158276  1
  C  C2  1  0.50000000  0.28604027  0.70874174  1
  C  C3  1  0.50000000  0.28579551  0.83064277  1
  C  C4  1  0.50000000  0.31478132  0.60617215  1
  C  C5  1  0.50000000  0.31117013  0.97304261  1
  C  C6  1  0.50000000  0.31634512  0.72922832  1
  C  C7  1  0.50000000  0.31569879  0.85209853  1
  C  C8  1  0.50000000  0.28197611  0.54829982  1
  C  C9  1  0.50000000  0.28360146  0.91188546  1
  C  C10  1  0.50000000  0.28580718  0.66915599  1
  C  C11  1  0.50000000  0.28605388  0.79105444  1
  C  C12  1  0.50000000  0.34867713  0.08542869  1
  C  C13  1  0.50000000  0.34506294  0.58425328  1
  C  C14  1  0.50000000  0.34797395  0.45389491  1
  C  C15  1  0.50000000  0.34372653  0.95735734  1
  C  C16  1  0.50000000  0.34861274  0.20802106  1
  C  C17  1  0.50000000  0.34682276  0.70869448  1
  C  C18  1  0.50000000  0.34857428  0.33147813  1
  C  C19  1  0.50000000  0.34652746  0.83250502  1
  C  C20  1  0.50000000  0.37881503  0.10580410  1
  C  C21  1  0.50000000  0.37639353  0.60445886  1
  C  C22  1  0.50000000  0.37649921  0.47828914  1
  C  C23  1  0.50000000  0.37512043  0.97970807  1
  C  C24  1  0.50000000  0.37883437  0.22922785  1
  C  C25  1  0.50000000  0.37763590  0.72933778  1
  C  C26  1  0.50000000  0.37876254  0.35282223  1
  C  C27  1  0.50000000  0.37705986  0.85401208  1
  C  C28  1  0.50000000  0.31115641  0.52688105  1
  C  C29  1  0.50000000  0.31479004  0.89369806  1
  C  C30  1  0.50000000  0.31571858  0.64776348  1
  C  C31  1  0.50000000  0.31636040  0.77061194  1
  C  C32  1  0.50000000  0.34802541  0.04602267  1
  C  C33  1  0.50000000  0.34371259  0.54255180  1
  C  C34  1  0.50000000  0.34858894  0.41447866  1
  C  C35  1  0.50000000  0.34506859  0.91563177  1
  C  C36  1  0.50000000  0.34862096  0.16835825  1
  C  C37  1  0.50000000  0.34653658  0.66737881  1
  C  C38  1  0.50000000  0.34861327  0.29182951  1
  C  C39  1  0.50000000  0.34682218  0.79118874  1
  C  C40  1  0.50000000  0.40870404  0.08383112  1
  C  C41  1  0.50000000  0.40684671  0.58310387  1
  C  C42  1  0.50000000  0.40770917  0.45790278  1
  C  C43  1  0.50000000  0.40615552  0.95885446  1
  C  C44  1  0.50000000  0.40954914  0.20868210  1
  C  C45  1  0.50000000  0.40808026  0.70831353  1
  C  C46  1  0.50000000  0.40945286  0.33261116  1
  C  C47  1  0.50000000  0.40782125  0.83336486  1
  C  C48  1  0.50000000  0.43961350  0.10440590  1
  C  C49  1  0.50000000  0.43772791  0.60392106  1
  C  C50  1  0.50000000  0.43818756  0.47911825  1
  C  C51  1  0.50000000  0.43751906  0.97934035  1
  C  C52  1  0.50000000  0.44032416  0.22930922  1
  C  C53  1  0.50000000  0.43862250  0.72916905  1
  C  C54  1  0.50000000  0.43990919  0.35397304  1
  C  C55  1  0.50000000  0.43825257  0.85438246  1
  C  C56  1  0.50000000  0.37654728  0.02164404  1
  C  C57  1  0.50000000  0.37509862  0.52022358  1
  C  C58  1  0.50000000  0.37874394  0.39410462  1
  C  C59  1  0.50000000  0.37639509  0.89544083  1
  C  C60  1  0.50000000  0.37882090  0.14709139  1
  C  C61  1  0.50000000  0.37706240  0.64589519  1
  C  C62  1  0.50000000  0.37882827  0.27063887  1
  C  C63  1  0.50000000  0.37763785  0.77057195  1
  C  C64  1  0.50000000  0.40777390  0.04203147  1
  C  C65  1  0.50000000  0.40610955  0.54112718  1
  C  C66  1  0.50000000  0.40861667  0.41606612  1
  C  C67  1  0.50000000  0.40686365  0.91684492  1
  C  C68  1  0.50000000  0.40951221  0.16728590  1
  C  C69  1  0.50000000  0.40781493  0.66656484  1
  C  C70  1  0.50000000  0.40951748  0.29121717  1
  C  C71  1  0.50000000  0.40808158  0.79161427  1
  C  C72  1  0.50000000  0.46995823  0.08307962  1
  C  C73  1  0.50000000  0.46864333  0.58319168  1
  C  C74  1  0.50000000  0.46913785  0.45837790  1
  C  C75  1  0.50000000  0.46839460  0.95814497  1
  C  C76  1  0.50000000  0.47087807  0.20821880  1
  C  C77  1  0.50000000  0.46932560  0.70818256  1
  C  C78  1  0.50000000  0.47064431  0.33319668  1
  C  C79  1  0.50000000  0.46913933  0.83332223  1
  C  C80  1  0.50000000  0.50091977  0.10385173  1
  C  C81  1  0.50000000  0.49953566  0.60418282  1
  C  C82  1  0.50000000  0.49960425  0.47962934  1
  C  C83  1  0.50000000  0.49942610  0.97874080  1
  C  C84  1  0.50000000  0.50163972  0.22911848  1
  C  C85  1  0.50000000  0.50000293  0.72909102  1
  C  C86  1  0.50000000  0.50123247  0.35436342  1
  C  C87  1  0.50000000  0.49981185  0.85406561  1
  C  C88  1  0.50000000  0.43825931  0.02084450  1
  C  C89  1  0.50000000  0.43746270  0.52062247  1
  C  C90  1  0.50000000  0.43953077  0.39552023  1
  C  C91  1  0.50000000  0.43775097  0.89603464  1
  C  C92  1  0.50000000  0.43997309  0.14594199  1
  C  C93  1  0.50000000  0.43824327  0.64557160  1
  C  C94  1  0.50000000  0.44030384  0.27062658  1
  C  C95  1  0.50000000  0.43862526  0.77077793  1
  C  C96  1  0.50000000  0.46923831  0.04157059  1
  C  C97  1  0.50000000  0.46834553  0.54182341  1
  C  C98  1  0.50000000  0.46985993  0.41686722  1
  C  C99  1  0.50000000  0.46867077  0.91676764  1
  C  C100  1  0.50000000  0.47069708  0.16674283  1
  C  C101  1  0.50000000  0.46912433  0.66663000  1
  C  C102  1  0.50000000  0.47084909  0.29172470  1
  C  C103  1  0.50000000  0.46932911  0.79176755  1
  C  C104  1  0.50000000  0.53133510  0.08273726  1
  C  C105  1  0.50000000  0.53021822  0.58366653  1
  C  C106  1  0.50000000  0.53053736  0.45922875  1
  C  C107  1  0.50000000  0.53011850  0.95767535  1
  C  C108  1  0.50000000  0.53222266  0.20817836  1
  C  C109  1  0.50000000  0.53063979  0.70827211  1
  C  C110  1  0.50000000  0.53198316  0.33374527  1
  C  C111  1  0.50000000  0.53055871  0.83318020  1
  C  C112  1  0.50000000  0.56146658  0.10424889  1
  C  C113  1  0.50000000  0.56130024  0.60456312  1
  C  C114  1  0.50000000  0.56005165  0.48096151  1
  C  C115  1  0.50000000  0.56085117  0.97867972  1
  C  C116  1  0.50000000  0.56215689  0.23004496  1
  C  C117  1  0.50000000  0.56151090  0.72920349  1
  C  C118  1  0.50000000  0.56174631  0.35584477  1
  C  C119  1  0.50000000  0.56144197  0.85396927  1
  C  C120  1  0.50000000  0.49970789  0.02031554  1
  C  C121  1  0.50000000  0.49935876  0.52119882  1
  C  C122  1  0.50000000  0.50082002  0.39611113  1
  C  C123  1  0.50000000  0.49956242  0.89578241  1
  C  C124  1  0.50000000  0.50129512  0.14560393  1
  C  C125  1  0.50000000  0.49978259  0.64587464  1
  C  C126  1  0.50000000  0.50162164  0.27084870  1
  C  C127  1  0.50000000  0.50000681  0.77084808  1
  C  C128  1  0.50000000  0.53065467  0.04073242  1
  C  C129  1  0.50000000  0.53005010  0.54225382  1
  C  C130  1  0.50000000  0.53121708  0.41723577  1
  C  C131  1  0.50000000  0.53026754  0.91625805  1
  C  C132  1  0.50000000  0.53202905  0.16625632  1
  C  C133  1  0.50000000  0.53052427  0.66671837  1
  C  C134  1  0.50000000  0.53219040  0.29182144  1
  C  C135  1  0.50000000  0.53065527  0.79164094  1
  C  C136  1  0.50000000  0.59209051  0.58402017  1
  C  C137  1  0.50000000  0.59243441  0.95761211  1
  C  C138  1  0.50000000  0.59224690  0.70849746  1
  C  C139  1  0.50000000  0.59228539  0.83312544  1
  C  C140  1  0.50000000  0.62284706  0.60473414  1
  C  C141  1  0.50000000  0.62270654  0.97684035  1
  C  C142  1  0.50000000  0.62295972  0.72922027  1
  C  C143  1  0.50000000  0.62291756  0.85366854  1
  C  C144  1  0.50000000  0.56016021  0.01896675  1
  C  C145  1  0.50000000  0.56077350  0.52123929  1
  C  C146  1  0.50000000  0.56136514  0.39579010  1
  C  C147  1  0.50000000  0.56134551  0.89533999  1
  C  C148  1  0.50000000  0.56180542  0.14420331  1
  C  C149  1  0.50000000  0.56140636  0.64593600  1
  C  C150  1  0.50000000  0.56213962  0.27000427  1
  C  C151  1  0.50000000  0.56152576  0.77070259  1
  C  C152  1  0.50000000  0.59237183  0.54226383  1
  C  C153  1  0.50000000  0.59214939  0.91586159  1
  C  C154  1  0.50000000  0.59224578  0.66678536  1
  C  C155  1  0.50000000  0.59226820  0.79141125  1
  C  C156  1  0.50000000  0.65371831  0.58411621  1
  C  C157  1  0.50000000  0.65357636  0.95724873  1
  C  C158  1  0.50000000  0.65390667  0.70837863  1
  C  C159  1  0.50000000  0.65398157  0.83304422  1
  C  C160  1  0.50000000  0.68477911  0.60410117  1
  C  C161  1  0.50000000  0.68389824  0.97803650  1
  C  C162  1  0.50000000  0.68460979  0.72896823  1
  C  C163  1  0.50000000  0.68473159  0.85365145  1
  C  C164  1  0.50000000  0.62262703  0.52299579  1
  C  C165  1  0.50000000  0.62291631  0.89515423  1
  C  C166  1  0.50000000  0.62286199  0.64622250  1
  C  C167  1  0.50000000  0.62297609  0.77068206  1
  C  C168  1  0.50000000  0.65348925  0.54263502  1
  C  C169  1  0.50000000  0.65380247  0.91576540  1
  C  C170  1  0.50000000  0.65393051  0.66683492  1
  C  C171  1  0.50000000  0.65393455  0.79150956  1
  C  C172  1  0.50000000  0.71437333  0.58226746  1
  C  C173  1  0.50000000  0.71397477  0.95822778  1
  C  C174  1  0.50000000  0.71454195  0.70757674  1
  C  C175  1  0.50000000  0.71461766  0.83226267  1
  C  C176  1  0.50000000  0.68383249  0.52191125  1
  C  C177  1  0.50000000  0.68485709  0.89576707  1
  C  C178  1  0.50000000  0.68466972  0.64621501  1
  C  C179  1  0.50000000  0.68463377  0.77091421  1
  C  C180  1  0.50000000  0.71392265  0.54168059  1
  C  C181  1  0.50000000  0.71442762  0.91764674  1
  C  C182  1  0.50000000  0.71455178  0.66760513  1
  C  C183  1  0.50000000  0.71459235  0.79228343  1
  H  H184  1  0.50000000  0.26063757  0.60471686  1
  H  H185  1  0.50000000  0.25802121  0.96665290  1
  H  H186  1  0.50000000  0.26222970  0.72389526  1
  H  H187  1  0.50000000  0.26165235  0.84495880  1
  H  H188  1  0.50000000  0.25804919  0.53307733  1
  H  H189  1  0.50000000  0.26062499  0.89522789  1
  H  H190  1  0.50000000  0.26172501  0.65468799  1
  H  H191  1  0.50000000  0.26228518  0.77580988  1
  H  H192  1  0.50000000  0.73849723  0.59690709  1
  H  H193  1  0.50000000  0.73758633  0.97413041  1
  H  H194  1  0.50000000  0.73850917  0.72249882  1
  H  H195  1  0.50000000  0.73853498  0.84734701  1
  H  H196  1  0.50000000  0.73743305  0.52555782  1
  H  H197  1  0.50000000  0.73862611  0.90317524  1
  H  H198  1  0.50000000  0.73850853  0.65263082  1
  H  H199  1  0.50000000  0.73853076  0.77727636  1
  H  H200  1  0.50000000  0.30565247  0.00335003  1
  H  H201  1  0.50000000  0.32477605  0.10040770  1
  H  H202  1  0.50000000  0.32316790  0.46477241  1
  H  H203  1  0.50000000  0.32473667  0.22318904  1
  H  H204  1  0.50000000  0.32459637  0.34630475  1
  H  H205  1  0.50000000  0.30564753  0.49659252  1
  H  H206  1  0.50000000  0.32324066  0.03508653  1
  H  H207  1  0.50000000  0.32465263  0.39952081  1
  H  H208  1  0.50000000  0.32471431  0.15335136  1
  H  H209  1  0.50000000  0.32470483  0.27679213  1
  H  H210  1  0.50000000  0.58541811  0.08923857  1
  H  H211  1  0.50000000  0.58355424  0.46527764  1
  H  H212  1  0.50000000  0.58617566  0.21519684  1
  H  H213  1  0.50000000  0.58583477  0.34115959  1
  H  H214  1  0.50000000  0.62376270  0.00849325  1
  H  H215  1  0.50000000  0.58370779  0.03456279  1
  H  H216  1  0.50000000  0.58530612  0.41081952  1
  H  H217  1  0.50000000  0.58583879  0.15902700  1
  H  H218  1  0.50000000  0.58612691  0.28493061  1
  H  H219  1  0.50000000  0.68320857  0.00981797  1
  H  H220  1  0.50000000  0.62368817  0.49130666  1
  H  H221  1  0.50000000  0.68318696  0.49014626  1
