# generated using pymatgen
data_H19C92
_symmetry_space_group_name_H-M   'P 1'
_cell_length_a   20.00000000
_cell_length_b   40.19450000
_cell_length_c   34.55127349
_cell_angle_alpha   90.00000000
_cell_angle_beta   90.00000000
_cell_angle_gamma   90.00000000
_symmetry_Int_Tables_number   1
_chemical_formula_structural   H19C92
_chemical_formula_sum   'H38 C184'
_cell_volume   27775.42324968
_cell_formula_units_Z   2
loop_
 _symmetry_equiv_pos_site_id
 _symmetry_equiv_pos_as_xyz
  1  'x, y, z'
loop_
 _atom_site_type_symbol
 _atom_site_label
 _atom_site_symmetry_multiplicity
 _atom_site_fract_x
 _atom_site_fract_y
 _atom_site_fract_z
 _atom_site_occupancy
  C  C0  1  0.50000000  0.28575318  0.58408504  1
  C  C1  1  0.50000000  0.28560565  0.95606453  1
  C  C2  1  0.50000000  0.28644763  0.70795934  1
  C  C3  1  0.50000000  0.28632930  0.83178999  1
  C  C4  1  0.50000000  0.31590049  0.60485655  1
  C  C5  1  0.50000000  0.31552043  0.97640899  1
  C  C6  1  0.50000000  0.31654262  0.72911671  1
  C  C7  1  0.50000000  0.31628047  0.85317492  1
  C  C8  1  0.50000000  0.28554036  0.54386694  1
  C  C9  1  0.50000000  0.28578455  0.91586493  1
  C  C10  1  0.50000000  0.28632448  0.66816734  1
  C  C11  1  0.50000000  0.28644460  0.79198277  1
  C  C12  1  0.50000000  0.34667293  0.58414382  1
  C  C13  1  0.50000000  0.34626562  0.95706177  1
  C  C14  1  0.50000000  0.34716832  0.70849772  1
  C  C15  1  0.50000000  0.34703012  0.83286904  1
  C  C16  1  0.50000000  0.37640984  0.10369427  1
  C  C17  1  0.50000000  0.37776464  0.60485161  1
  C  C18  1  0.50000000  0.37812492  0.48143602  1
  C  C19  1  0.50000000  0.37766787  0.97816342  1
  C  C20  1  0.50000000  0.37532896  0.23002113  1
  C  C21  1  0.50000000  0.37810730  0.72930005  1
  C  C22  1  0.50000000  0.37593142  0.35625658  1
  C  C23  1  0.50000000  0.37796079  0.85384458  1
  C  C24  1  0.50000000  0.31546163  0.52347685  1
  C  C25  1  0.50000000  0.31592212  0.89507116  1
  C  C26  1  0.50000000  0.31626924  0.64675356  1
  C  C27  1  0.50000000  0.31655087  0.77084869  1
  C  C28  1  0.50000000  0.34621327  0.54283362  1
  C  C29  1  0.50000000  0.34671510  0.91575997  1
  C  C30  1  0.50000000  0.34701308  0.66705731  1
  C  C31  1  0.50000000  0.34718921  0.79142365  1
  C  C32  1  0.50000000  0.40658404  0.08239024  1
  C  C33  1  0.50000000  0.40856591  0.58396846  1
  C  C34  1  0.50000000  0.40747868  0.45957579  1
  C  C35  1  0.50000000  0.40847247  0.95740198  1
  C  C36  1  0.50000000  0.40518906  0.20806078  1
  C  C37  1  0.50000000  0.40880117  0.70841544  1
  C  C38  1  0.50000000  0.40554860  0.33391189  1
  C  C39  1  0.50000000  0.40877620  0.83312648  1
  C  C40  1  0.50000000  0.43685703  0.10365059  1
  C  C41  1  0.50000000  0.43941005  0.60438153  1
  C  C42  1  0.50000000  0.43850672  0.47985567  1
  C  C43  1  0.50000000  0.43898471  0.97855433  1
  C  C44  1  0.50000000  0.43575310  0.22907227  1
  C  C45  1  0.50000000  0.43945742  0.72915703  1
  C  C46  1  0.50000000  0.43633950  0.35453952  1
  C  C47  1  0.50000000  0.43939718  0.85399162  1
  C  C48  1  0.50000000  0.37812239  0.01848156  1
  C  C49  1  0.50000000  0.37763846  0.52174719  1
  C  C50  1  0.50000000  0.37647432  0.39620741  1
  C  C51  1  0.50000000  0.37779711  0.89504202  1
  C  C52  1  0.50000000  0.37586366  0.14366373  1
  C  C53  1  0.50000000  0.37793160  0.64605309  1
  C  C54  1  0.50000000  0.37540246  0.27001566  1
  C  C55  1  0.50000000  0.37811707  0.77059355  1
  C  C56  1  0.50000000  0.40747093  0.04035219  1
  C  C57  1  0.50000000  0.40845831  0.54249516  1
  C  C58  1  0.50000000  0.40662252  0.41754785  1
  C  C59  1  0.50000000  0.40858872  0.91593046  1
  C  C60  1  0.50000000  0.40546749  0.16600880  1
  C  C61  1  0.50000000  0.40875677  0.66675634  1
  C  C62  1  0.50000000  0.40530065  0.29187844  1
  C  C63  1  0.50000000  0.40881031  0.79146443  1
  C  C64  1  0.50000000  0.46786657  0.08297281  1
  C  C65  1  0.50000000  0.47019678  0.58324125  1
  C  C66  1  0.50000000  0.46885112  0.45844240  1
  C  C67  1  0.50000000  0.47009174  0.95802673  1
  C  C68  1  0.50000000  0.46653259  0.20819971  1
  C  C69  1  0.50000000  0.47021589  0.70818867  1
  C  C70  1  0.50000000  0.46685024  0.33325297  1
  C  C71  1  0.50000000  0.47024892  0.83319904  1
  C  C72  1  0.50000000  0.49803257  0.10446592  1
  C  C73  1  0.50000000  0.50119808  0.60387078  1
  C  C74  1  0.50000000  0.49984916  0.47906755  1
  C  C75  1  0.50000000  0.50077256  0.97927014  1
  C  C76  1  0.50000000  0.49706466  0.22934010  1
  C  C77  1  0.50000000  0.50085255  0.72909380  1
  C  C78  1  0.50000000  0.49761753  0.35393389  1
  C  C79  1  0.50000000  0.50095298  0.85419706  1
  C  C80  1  0.50000000  0.43849901  0.02004681  1
  C  C81  1  0.50000000  0.43898227  0.52134054  1
  C  C82  1  0.50000000  0.43690109  0.39629973  1
  C  C83  1  0.50000000  0.43942009  0.89552070  1
  C  C84  1  0.50000000  0.43628959  0.14541531  1
  C  C85  1  0.50000000  0.43939294  0.64591550  1
  C  C86  1  0.50000000  0.43583128  0.27086225  1
  C  C87  1  0.50000000  0.43946026  0.77072113  1
  C  C88  1  0.50000000  0.46883818  0.04146930  1
  C  C89  1  0.50000000  0.47009662  0.54187023  1
  C  C90  1  0.50000000  0.46790756  0.41696555  1
  C  C91  1  0.50000000  0.47020210  0.91665001  1
  C  C92  1  0.50000000  0.46680265  0.16670316  1
  C  C93  1  0.50000000  0.47025865  0.66669081  1
  C  C94  1  0.50000000  0.46660980  0.29177751  1
  C  C95  1  0.50000000  0.47021843  0.79169108  1
  C  C96  1  0.50000000  0.52894621  0.08399705  1
  C  C97  1  0.50000000  0.53183853  0.58297374  1
  C  C98  1  0.50000000  0.53016527  0.45770165  1
  C  C99  1  0.50000000  0.53214222  0.95888605  1
  C  C100  1  0.50000000  0.52785022  0.20878863  1
  C  C101  1  0.50000000  0.53141059  0.70823430  1
  C  C102  1  0.50000000  0.52800167  0.33250059  1
  C  C103  1  0.50000000  0.53151313  0.83322766  1
  C  C104  1  0.50000000  0.55866747  0.10618177  1
  C  C105  1  0.50000000  0.56255102  0.60440585  1
  C  C106  1  0.50000000  0.56148028  0.47795065  1
  C  C107  1  0.50000000  0.56287540  0.98008525  1
  C  C108  1  0.50000000  0.55857490  0.22930764  1
  C  C109  1  0.50000000  0.56210736  0.72922156  1
  C  C110  1  0.50000000  0.55871139  0.35260884  1
  C  C111  1  0.50000000  0.56232966  0.85397040  1
  C  C112  1  0.50000000  0.49984192  0.02083568  1
  C  C113  1  0.50000000  0.50078418  0.52062540  1
  C  C114  1  0.50000000  0.49807626  0.39547550  1
  C  C115  1  0.50000000  0.50119674  0.89601397  1
  C  C116  1  0.50000000  0.49756957  0.14600929  1
  C  C117  1  0.50000000  0.50095938  0.64568579  1
  C  C118  1  0.50000000  0.49712143  0.27063679  1
  C  C119  1  0.50000000  0.50085537  0.77078128  1
  C  C120  1  0.50000000  0.53014972  0.04222796  1
  C  C121  1  0.50000000  0.53215918  0.54100752  1
  C  C122  1  0.50000000  0.52899234  0.41594442  1
  C  C123  1  0.50000000  0.53183209  0.91691182  1
  C  C124  1  0.50000000  0.52794504  0.16745830  1
  C  C125  1  0.50000000  0.53151472  0.66665116  1
  C  C126  1  0.50000000  0.52791971  0.29116932  1
  C  C127  1  0.50000000  0.53141607  0.79164280  1
  C  C128  1  0.50000000  0.58885477  0.08607221  1
  C  C129  1  0.50000000  0.59341463  0.58413638  1
  C  C130  1  0.50000000  0.58981981  0.45320453  1
  C  C131  1  0.50000000  0.59409308  0.95770947  1
  C  C132  1  0.50000000  0.58879974  0.20818630  1
  C  C133  1  0.50000000  0.59276373  0.70861350  1
  C  C134  1  0.50000000  0.58889704  0.33135032  1
  C  C135  1  0.50000000  0.59292462  0.83282761  1
  C  C136  1  0.50000000  0.62397337  0.60560437  1
  C  C137  1  0.50000000  0.62577266  0.97391752  1
  C  C138  1  0.50000000  0.62335518  0.72933575  1
  C  C139  1  0.50000000  0.62362410  0.85302659  1
  C  C140  1  0.50000000  0.56148805  0.02198736  1
  C  C141  1  0.50000000  0.56289805  0.51982384  1
  C  C142  1  0.50000000  0.55872398  0.39377377  1
  C  C143  1  0.50000000  0.56255203  0.89547539  1
  C  C144  1  0.50000000  0.55866098  0.14735632  1
  C  C145  1  0.50000000  0.56232695  0.64590627  1
  C  C146  1  0.50000000  0.55862240  0.27062211  1
  C  C147  1  0.50000000  0.56211217  0.77064925  1
  C  C148  1  0.50000000  0.58983737  0.04676752  1
  C  C149  1  0.50000000  0.59413869  0.54213674  1
  C  C150  1  0.50000000  0.58890979  0.41389995  1
  C  C151  1  0.50000000  0.59340888  0.91572127  1
  C  C152  1  0.50000000  0.58886178  0.16860869  1
  C  C153  1  0.50000000  0.59291008  0.66705339  1
  C  C154  1  0.50000000  0.58884723  0.29177180  1
  C  C155  1  0.50000000  0.59276678  0.79126226  1
  C  C156  1  0.50000000  0.65556323  0.58661108  1
  C  C157  1  0.50000000  0.65610724  0.95410129  1
  C  C158  1  0.50000000  0.65430526  0.70880450  1
  C  C159  1  0.50000000  0.65459272  0.83229347  1
  C  C160  1  0.50000000  0.68640606  0.60646580  1
  C  C161  1  0.50000000  0.68640639  0.97499214  1
  C  C162  1  0.50000000  0.68494031  0.72922358  1
  C  C163  1  0.50000000  0.68568777  0.85192761  1
  C  C164  1  0.50000000  0.62584637  0.52594545  1
  C  C165  1  0.50000000  0.62398243  0.89428427  1
  C  C166  1  0.50000000  0.62359845  0.64685468  1
  C  C167  1  0.50000000  0.62336179  0.77055080  1
  C  C168  1  0.50000000  0.65614748  0.54585284  1
  C  C169  1  0.50000000  0.65557136  0.91331521  1
  C  C170  1  0.50000000  0.65455493  0.66759971  1
  C  C171  1  0.50000000  0.65431321  0.79108497  1
  C  C172  1  0.50000000  0.71629737  0.58532915  1
  C  C173  1  0.50000000  0.71639529  0.95519497  1
  C  C174  1  0.50000000  0.71521241  0.70871706  1
  C  C175  1  0.50000000  0.71553261  0.83078654  1
  C  C176  1  0.50000000  0.68648076  0.52507486  1
  C  C177  1  0.50000000  0.68643415  0.89347265  1
  C  C178  1  0.50000000  0.68564525  0.64796245  1
  C  C179  1  0.50000000  0.68493835  0.77066446  1
  C  C180  1  0.50000000  0.71645479  0.54487372  1
  C  C181  1  0.50000000  0.71628612  0.91474687  1
  C  C182  1  0.50000000  0.71548816  0.66908595  1
  C  C183  1  0.50000000  0.71522061  0.79114536  1
  H  H184  1  0.50000000  0.26197373  0.59940395  1
  H  H185  1  0.50000000  0.26194760  0.97182189  1
  H  H186  1  0.50000000  0.26252977  0.72298869  1
  H  H187  1  0.50000000  0.26235960  0.84670985  1
  H  H188  1  0.50000000  0.26183193  0.52820428  1
  H  H189  1  0.50000000  0.26194378  0.90069133  1
  H  H190  1  0.50000000  0.26225446  0.65345890  1
  H  H191  1  0.50000000  0.26257510  0.77685760  1
  H  H192  1  0.50000000  0.74014113  0.60047834  1
  H  H193  1  0.50000000  0.74010240  0.97082726  1
  H  H194  1  0.50000000  0.73897700  0.72391049  1
  H  H195  1  0.50000000  0.73936898  0.84587682  1
  H  H196  1  0.50000000  0.74010501  0.52912305  1
  H  H197  1  0.50000000  0.74018799  0.89973040  1
  H  H198  1  0.50000000  0.73933409  0.65402917  1
  H  H199  1  0.50000000  0.73891298  0.77579372  1
  H  H200  1  0.50000000  0.31442156  0.00800212  1
  H  H201  1  0.50000000  0.35259853  0.08838537  1
  H  H202  1  0.50000000  0.35453085  0.46599410  1
  H  H203  1  0.50000000  0.35129596  0.21521092  1
  H  H204  1  0.50000000  0.35173645  0.34184340  1
  H  H205  1  0.50000000  0.31437230  0.49185756  1
  H  H206  1  0.50000000  0.35451797  0.03393199  1
  H  H207  1  0.50000000  0.35259420  0.41132594  1
  H  H208  1  0.50000000  0.35170152  0.15815995  1
  H  H209  1  0.50000000  0.35144284  0.28497280  1
  H  H210  1  0.50000000  0.61254434  0.10146908  1
  H  H211  1  0.50000000  0.61479455  0.46347884  1
  H  H212  1  0.50000000  0.61261868  0.22335814  1
  H  H213  1  0.50000000  0.61282629  0.34623951  1
  H  H214  1  0.50000000  0.63049083  0.00423535  1
  H  H215  1  0.50000000  0.61489031  0.03667850  1
  H  H216  1  0.50000000  0.61264219  0.39859905  1
  H  H217  1  0.50000000  0.61277866  0.15368367  1
  H  H218  1  0.50000000  0.61273932  0.27676441  1
  H  H219  1  0.50000000  0.68578468  0.00673328  1
  H  H220  1  0.50000000  0.63072552  0.49563222  1
  H  H221  1  0.50000000  0.68594092  0.49336771  1
