# generated using pymatgen
data_H7C23
_symmetry_space_group_name_H-M   'P 1'
_cell_length_a   20.00000000
_cell_length_b   40.19450000
_cell_length_c   34.78904531
_cell_angle_alpha   90.00000000
_cell_angle_beta   90.00000000
_cell_angle_gamma   90.00000000
_symmetry_Int_Tables_number   1
_chemical_formula_structural   H7C23
_chemical_formula_sum   'H56 C184'
_cell_volume   27966.56563755
_cell_formula_units_Z   8
loop_
 _symmetry_equiv_pos_site_id
 _symmetry_equiv_pos_as_xyz
  1  'x, y, z'
loop_
 _atom_site_type_symbol
 _atom_site_label
 _atom_site_symmetry_multiplicity
 _atom_site_fract_x
 _atom_site_fract_y
 _atom_site_fract_z
 _atom_site_occupancy
  C  C0  1  0.50000000  0.27848947  0.07882297  1
  C  C1  1  0.50000000  0.28496582  0.58362541  1
  C  C2  1  0.50000000  0.28073972  0.46027939  1
  C  C3  1  0.50000000  0.28438034  0.95542343  1
  C  C4  1  0.50000000  0.27447449  0.20572253  1
  C  C5  1  0.50000000  0.28524659  0.70723699  1
  C  C6  1  0.50000000  0.27528128  0.33363315  1
  C  C7  1  0.50000000  0.28528583  0.83192718  1
  C  C8  1  0.50000000  0.30722829  0.10260384  1
  C  C9  1  0.50000000  0.31536636  0.60436816  1
  C  C10  1  0.50000000  0.31172897  0.48037286  1
  C  C11  1  0.50000000  0.31389487  0.97780213  1
  C  C12  1  0.50000000  0.30382013  0.22881580  1
  C  C13  1  0.50000000  0.31506910  0.72889030  1
  C  C14  1  0.50000000  0.30558750  0.35506836  1
  C  C15  1  0.50000000  0.31521219  0.85345898  1
  C  C16  1  0.50000000  0.28074762  0.03924757  1
  C  C17  1  0.50000000  0.28438717  0.54422324  1
  C  C18  1  0.50000000  0.27849516  0.42069370  1
  C  C19  1  0.50000000  0.28490912  0.91603064  1
  C  C20  1  0.50000000  0.27530094  0.16584733  1
  C  C21  1  0.50000000  0.28533293  0.66755770  1
  C  C22  1  0.50000000  0.27447925  0.29375999  1
  C  C23  1  0.50000000  0.28523949  0.79222853  1
  C  C24  1  0.50000000  0.33880902  0.08317573  1
  C  C25  1  0.50000000  0.34572261  0.58336984  1
  C  C26  1  0.50000000  0.34145324  0.45820261  1
  C  C27  1  0.50000000  0.34547444  0.95815336  1
  C  C28  1  0.50000000  0.33477973  0.20826496  1
  C  C29  1  0.50000000  0.34571922  0.70830165  1
  C  C30  1  0.50000000  0.33556618  0.33278773  1
  C  C31  1  0.50000000  0.34576278  0.83271023  1
  C  C32  1  0.50000000  0.36809037  0.10621065  1
  C  C33  1  0.50000000  0.37654512  0.60467754  1
  C  C34  1  0.50000000  0.37349342  0.47779147  1
  C  C35  1  0.50000000  0.37594248  0.97999277  1
  C  C36  1  0.50000000  0.36539655  0.22919491  1
  C  C37  1  0.50000000  0.37645581  0.72920585  1
  C  C38  1  0.50000000  0.36683378  0.35230210  1
  C  C39  1  0.50000000  0.37647553  0.85359581  1
  C  C40  1  0.50000000  0.31174359  0.01922389  1
  C  C41  1  0.50000000  0.31391312  0.52182113  1
  C  C42  1  0.50000000  0.30722686  0.39691138  1
  C  C43  1  0.50000000  0.31529620  0.89520084  1
  C  C44  1  0.50000000  0.30560238  0.14442877  1
  C  C45  1  0.50000000  0.31526554  0.64607785  1
  C  C46  1  0.50000000  0.30382132  0.27067704  1
  C  C47  1  0.50000000  0.31507551  0.77063973  1
  C  C48  1  0.50000000  0.34144777  0.04138304  1
  C  C49  1  0.50000000  0.34550859  0.54146201  1
  C  C50  1  0.50000000  0.33879809  0.41637602  1
  C  C51  1  0.50000000  0.34565054  0.91623882  1
  C  C52  1  0.50000000  0.33557829  0.16671436  1
  C  C53  1  0.50000000  0.34580799  0.66685420  1
  C  C54  1  0.50000000  0.33477107  0.29122793  1
  C  C55  1  0.50000000  0.34571137  0.79126074  1
  C  C56  1  0.50000000  0.39878827  0.08674844  1
  C  C57  1  0.50000000  0.40708470  0.58421416  1
  C  C58  1  0.50000000  0.40115502  0.45194466  1
  C  C59  1  0.50000000  0.40742156  0.95754054  1
  C  C60  1  0.50000000  0.39582789  0.20847980  1
  C  C61  1  0.50000000  0.40706679  0.70855572  1
  C  C62  1  0.50000000  0.39656329  0.33024974  1
  C  C63  1  0.50000000  0.40701279  0.83244986  1
  C  C64  1  0.50000000  0.43772998  0.60579451  1
  C  C65  1  0.50000000  0.43897736  0.97383308  1
  C  C66  1  0.50000000  0.43772165  0.72927728  1
  C  C67  1  0.50000000  0.43766295  0.85266842  1
  C  C68  1  0.50000000  0.37345093  0.02179479  1
  C  C69  1  0.50000000  0.37597715  0.51962214  1
  C  C70  1  0.50000000  0.36806440  0.39331492  1
  C  C71  1  0.50000000  0.37650206  0.89498019  1
  C  C72  1  0.50000000  0.36683687  0.14720063  1
  C  C73  1  0.50000000  0.37651241  0.64603552  1
  C  C74  1  0.50000000  0.36538569  0.27028439  1
  C  C75  1  0.50000000  0.37644766  0.77038802  1
  C  C76  1  0.50000000  0.40111446  0.04759139  1
  C  C77  1  0.50000000  0.40744164  0.54213162  1
  C  C78  1  0.50000000  0.39876204  0.41277326  1
  C  C79  1  0.50000000  0.40702881  0.91545786  1
  C  C80  1  0.50000000  0.39657340  0.16919730  1
  C  C81  1  0.50000000  0.40705122  0.66721608  1
  C  C82  1  0.50000000  0.39580895  0.29097177  1
  C  C83  1  0.50000000  0.40704046  0.79108827  1
  C  C84  1  0.50000000  0.46897228  0.58687765  1
  C  C85  1  0.50000000  0.46933042  0.95369133  1
  C  C86  1  0.50000000  0.46856276  0.70889433  1
  C  C87  1  0.50000000  0.46849974  0.83184810  1
  C  C88  1  0.50000000  0.49965737  0.60716289  1
  C  C89  1  0.50000000  0.49950119  0.97385405  1
  C  C90  1  0.50000000  0.49940721  0.72936738  1
  C  C91  1  0.50000000  0.49950681  0.85165430  1
  C  C92  1  0.50000000  0.43903226  0.52585058  1
  C  C93  1  0.50000000  0.43767697  0.89389140  1
  C  C94  1  0.50000000  0.43770151  0.64702064  1
  C  C95  1  0.50000000  0.43771974  0.77041164  1
  C  C96  1  0.50000000  0.46942574  0.54600538  1
  C  C97  1  0.50000000  0.46890986  0.91282847  1
  C  C98  1  0.50000000  0.46852575  0.66787536  1
  C  C99  1  0.50000000  0.46854366  0.79083418  1
  C  C100  1  0.50000000  0.53024492  0.58680318  1
  C  C101  1  0.50000000  0.53017348  0.95443196  1
  C  C102  1  0.50000000  0.53030439  0.70927396  1
  C  C103  1  0.50000000  0.53027282  0.83135245  1
  C  C104  1  0.50000000  0.56096661  0.60718522  1
  C  C105  1  0.50000000  0.56071449  0.97401400  1
  C  C106  1  0.50000000  0.56129515  0.72945060  1
  C  C107  1  0.50000000  0.56105639  0.85175949  1
  C  C108  1  0.50000000  0.49961804  0.52587762  1
  C  C109  1  0.50000000  0.49960489  0.89258177  1
  C  C110  1  0.50000000  0.49954803  0.64809846  1
  C  C111  1  0.50000000  0.49939399  0.77038567  1
  C  C112  1  0.50000000  0.53027515  0.54535181  1
  C  C113  1  0.50000000  0.53016288  0.91298037  1
  C  C114  1  0.50000000  0.53031142  0.66841983  1
  C  C115  1  0.50000000  0.53028220  0.79050352  1
  C  C116  1  0.50000000  0.59160453  0.58689391  1
  C  C117  1  0.50000000  0.59109238  0.95403091  1
  C  C118  1  0.50000000  0.59213378  0.70905523  1
  C  C119  1  0.50000000  0.59208052  0.83191051  1
  C  C120  1  0.50000000  0.62272655  0.60603429  1
  C  C121  1  0.50000000  0.62126296  0.97419255  1
  C  C122  1  0.50000000  0.62285718  0.72940261  1
  C  C123  1  0.50000000  0.62271315  0.85262377  1
  C  C124  1  0.50000000  0.56084225  0.52582014  1
  C  C125  1  0.50000000  0.56089232  0.89262741  1
  C  C126  1  0.50000000  0.56111844  0.64804934  1
  C  C127  1  0.50000000  0.56128122  0.77034097  1
  C  C128  1  0.50000000  0.59120925  0.54582935  1
  C  C129  1  0.50000000  0.59150509  0.91296209  1
  C  C130  1  0.50000000  0.59214048  0.66790208  1
  C  C131  1  0.50000000  0.59210007  0.79075339  1
  C  C132  1  0.50000000  0.66656318  0.08779114  1
  C  C133  1  0.50000000  0.65341077  0.58463400  1
  C  C134  1  0.50000000  0.66194361  0.45170834  1
  C  C135  1  0.50000000  0.65290986  0.95719666  1
  C  C136  1  0.50000000  0.67430319  0.20925764  1
  C  C137  1  0.50000000  0.65376382  0.70875027  1
  C  C138  1  0.50000000  0.67294899  0.33070355  1
  C  C139  1  0.50000000  0.65360875  0.83225529  1
  C  C140  1  0.50000000  0.69827201  0.10455134  1
  C  C141  1  0.50000000  0.68402117  0.60504698  1
  C  C142  1  0.50000000  0.68815032  0.47878134  1
  C  C143  1  0.50000000  0.68404459  0.97878440  1
  C  C144  1  0.50000000  0.70491547  0.22896663  1
  C  C145  1  0.50000000  0.68453353  0.72908921  1
  C  C146  1  0.50000000  0.70188057  0.35358663  1
  C  C147  1  0.50000000  0.68413808  0.85310621  1
  C  C148  1  0.50000000  0.62137658  0.52566813  1
  C  C149  1  0.50000000  0.62262107  0.89382080  1
  C  C150  1  0.50000000  0.62279425  0.64721297  1
  C  C151  1  0.50000000  0.62283268  0.77040472  1
  C  C152  1  0.50000000  0.66162921  0.04847072  1
  C  C153  1  0.50000000  0.65302544  0.54269734  1
  C  C154  1  0.50000000  0.66686147  0.41240258  1
  C  C155  1  0.50000000  0.65330151  0.91523307  1
  C  C156  1  0.50000000  0.67266618  0.16963052  1
  C  C157  1  0.50000000  0.65369071  0.66756865  1
  C  C158  1  0.50000000  0.67443526  0.29108626  1
  C  C159  1  0.50000000  0.65372190  0.79106509  1
  C  C160  1  0.50000000  0.72507129  0.07841266  1
  C  C161  1  0.50000000  0.71365560  0.58342638  1
  C  C162  1  0.50000000  0.72024222  0.46143119  1
  C  C163  1  0.50000000  0.71322002  0.95636530  1
  C  C164  1  0.50000000  0.73391884  0.20619004  1
  C  C165  1  0.50000000  0.71435766  0.70756983  1
  C  C166  1  0.50000000  0.73258033  0.33400051  1
  C  C167  1  0.50000000  0.71413410  0.83196791  1
  C  C168  1  0.50000000  0.68786462  0.02135757  1
  C  C169  1  0.50000000  0.68419693  0.52123760  1
  C  C170  1  0.50000000  0.69859799  0.39566157  1
  C  C171  1  0.50000000  0.68389980  0.89480741  1
  C  C172  1  0.50000000  0.70153747  0.14662003  1
  C  C173  1  0.50000000  0.68423055  0.64673549  1
  C  C174  1  0.50000000  0.70498666  0.27126727  1
  C  C175  1  0.50000000  0.68449598  0.77073696  1
  C  C176  1  0.50000000  0.71995718  0.03877541  1
  C  C177  1  0.50000000  0.71338013  0.54357516  1
  C  C178  1  0.50000000  0.72537092  0.42183299  1
  C  C179  1  0.50000000  0.71348886  0.91648437  1
  C  C180  1  0.50000000  0.73226215  0.16611618  1
  C  C181  1  0.50000000  0.71422070  0.66786665  1
  C  C182  1  0.50000000  0.73408877  0.29387571  1
  C  C183  1  0.50000000  0.71429815  0.79226040  1
  H  H184  1  0.50000000  0.25372893  0.09186230  1
  H  H185  1  0.50000000  0.26128801  0.59904678  1
  H  H186  1  0.50000000  0.25742784  0.47642688  1
  H  H187  1  0.50000000  0.26020406  0.96972443  1
  H  H188  1  0.50000000  0.25003675  0.21964644  1
  H  H189  1  0.50000000  0.26115877  0.72181025  1
  H  H190  1  0.50000000  0.25142608  0.34883800  1
  H  H191  1  0.50000000  0.26123412  0.84655808  1
  H  H192  1  0.50000000  0.25752046  0.02294337  1
  H  H193  1  0.50000000  0.26024685  0.52983795  1
  H  H194  1  0.50000000  0.25373442  0.40763657  1
  H  H195  1  0.50000000  0.26113263  0.90085467  1
  H  H196  1  0.50000000  0.25145898  0.15063229  1
  H  H197  1  0.50000000  0.26129545  0.65290694  1
  H  H198  1  0.50000000  0.25007400  0.27973917  1
  H  H199  1  0.50000000  0.26122921  0.77747470  1
  H  H200  1  0.50000000  0.75074945  0.08902470  1
  H  H201  1  0.50000000  0.73787294  0.59773164  1
  H  H202  1  0.50000000  0.74260850  0.47921557  1
  H  H203  1  0.50000000  0.73756417  0.97028435  1
  H  H204  1  0.50000000  0.75848214  0.21978965  1
  H  H205  1  0.50000000  0.73844451  0.72216355  1
  H  H206  1  0.50000000  0.75584329  0.35037855  1
  H  H207  1  0.50000000  0.73807674  0.84689420  1
  H  H208  1  0.50000000  0.74233427  0.02101288  1
  H  H209  1  0.50000000  0.73764047  0.52944410  1
  H  H210  1  0.50000000  0.75109860  0.41140500  1
  H  H211  1  0.50000000  0.73770545  0.90215455  1
  H  H212  1  0.50000000  0.75558222  0.14985547  1
  H  H213  1  0.50000000  0.73818385  0.65296668  1
  H  H214  1  0.50000000  0.75852558  0.27994069  1
  H  H215  1  0.50000000  0.73833354  0.77754634  1
  H  H216  1  0.50000000  0.42212911  0.10273917  1
  H  H217  1  0.50000000  0.42658819  0.46134612  1
  H  H218  1  0.50000000  0.41950954  0.22377118  1
  H  H219  1  0.50000000  0.42083802  0.34432377  1
  H  H220  1  0.50000000  0.44306176  0.00428578  1
  H  H221  1  0.50000000  0.42649263  0.03806616  1
  H  H222  1  0.50000000  0.42203686  0.39664433  1
  H  H223  1  0.50000000  0.42080203  0.15500597  1
  H  H224  1  0.50000000  0.41945586  0.27558368  1
  H  H225  1  0.50000000  0.49930057  0.00538338  1
  H  H226  1  0.50000000  0.44306778  0.49538283  1
  H  H227  1  0.50000000  0.56097738  0.00554385  1
  H  H228  1  0.50000000  0.49947606  0.49433527  1
  H  H229  1  0.50000000  0.61804928  0.00489067  1
  H  H230  1  0.50000000  0.56111943  0.49428884  1
  H  H231  1  0.50000000  0.64418327  0.10559783  1
  H  H232  1  0.50000000  0.63604079  0.45970755  1
  H  H233  1  0.50000000  0.65076377  0.22492800  1
  H  H234  1  0.50000000  0.64825887  0.34374365  1
  H  H235  1  0.50000000  0.61812952  0.49495786  1
  H  H236  1  0.50000000  0.63565115  0.04067569  1
  H  H237  1  0.50000000  0.64441160  0.39473421  1
  H  H238  1  0.50000000  0.64789810  0.15672198  1
  H  H239  1  0.50000000  0.65083157  0.27554879  1
