# generated using pymatgen
data_H27C92
_symmetry_space_group_name_H-M   'P 1'
_cell_length_a   20.00000000
_cell_length_b   40.19450000
_cell_length_c   34.60916469
_cell_angle_alpha   90.00000000
_cell_angle_beta   90.00000000
_cell_angle_gamma   90.00000000
_symmetry_Int_Tables_number   1
_chemical_formula_structural   H27C92
_chemical_formula_sum   'H54 C184'
_cell_volume   27821.96140170
_cell_formula_units_Z   2
loop_
 _symmetry_equiv_pos_site_id
 _symmetry_equiv_pos_as_xyz
  1  'x, y, z'
loop_
 _atom_site_type_symbol
 _atom_site_label
 _atom_site_symmetry_multiplicity
 _atom_site_fract_x
 _atom_site_fract_y
 _atom_site_fract_z
 _atom_site_occupancy
  C  C0  1  0.50000000  0.28569547  0.08204153  1
  C  C1  1  0.50000000  0.28557751  0.58262794  1
  C  C2  1  0.50000000  0.28558983  0.45769000  1
  C  C3  1  0.50000000  0.28558953  0.95708564  1
  C  C4  1  0.50000000  0.28578562  0.20731439  1
  C  C5  1  0.50000000  0.28550157  0.70753474  1
  C  C6  1  0.50000000  0.28577126  0.33251118  1
  C  C7  1  0.50000000  0.28551577  0.83223425  1
  C  C8  1  0.50000000  0.31563172  0.10357305  1
  C  C9  1  0.50000000  0.31545682  0.60422930  1
  C  C10  1  0.50000000  0.31546821  0.47930323  1
  C  C11  1  0.50000000  0.31552478  0.97855353  1
  C  C12  1  0.50000000  0.31564866  0.22885555  1
  C  C13  1  0.50000000  0.31540918  0.72898761  1
  C  C14  1  0.50000000  0.31560672  0.35411266  1
  C  C15  1  0.50000000  0.31542133  0.85373199  1
  C  C16  1  0.50000000  0.28564449  0.04212537  1
  C  C17  1  0.50000000  0.28558844  0.54273654  1
  C  C18  1  0.50000000  0.28566505  0.41776896  1
  C  C19  1  0.50000000  0.28558653  0.91720527  1
  C  C20  1  0.50000000  0.28579817  0.16733452  1
  C  C21  1  0.50000000  0.28552511  0.66763409  1
  C  C22  1  0.50000000  0.28577055  0.29253770  1
  C  C23  1  0.50000000  0.28550016  0.79234672  1
  C  C24  1  0.50000000  0.34618225  0.08280086  1
  C  C25  1  0.50000000  0.34611640  0.58365050  1
  C  C26  1  0.50000000  0.34610161  0.45870174  1
  C  C27  1  0.50000000  0.34609734  0.95774197  1
  C  C28  1  0.50000000  0.34622549  0.20807612  1
  C  C29  1  0.50000000  0.34605182  0.70834130  1
  C  C30  1  0.50000000  0.34622257  0.33343475  1
  C  C31  1  0.50000000  0.34606977  0.83303854  1
  C  C32  1  0.50000000  0.37719184  0.10369703  1
  C  C33  1  0.50000000  0.37701312  0.60461191  1
  C  C34  1  0.50000000  0.37690629  0.47986840  1
  C  C35  1  0.50000000  0.37702859  0.97855681  1
  C  C36  1  0.50000000  0.37714350  0.22910104  1
  C  C37  1  0.50000000  0.37688066  0.72920525  1
  C  C38  1  0.50000000  0.37713975  0.35451336  1
  C  C39  1  0.50000000  0.37693589  0.85383051  1
  C  C40  1  0.50000000  0.31551100  0.02052388  1
  C  C41  1  0.50000000  0.31551383  0.52127762  1
  C  C42  1  0.50000000  0.31559725  0.39625000  1
  C  C43  1  0.50000000  0.31547105  0.89563358  1
  C  C44  1  0.50000000  0.31563078  0.14571264  1
  C  C45  1  0.50000000  0.31541801  0.64613805  1
  C  C46  1  0.50000000  0.31564322  0.27101076  1
  C  C47  1  0.50000000  0.31540712  0.77085710  1
  C  C48  1  0.50000000  0.34614781  0.04112766  1
  C  C49  1  0.50000000  0.34607492  0.54211046  1
  C  C50  1  0.50000000  0.34614373  0.41703057  1
  C  C51  1  0.50000000  0.34612657  0.91620473  1
  C  C52  1  0.50000000  0.34623798  0.16641718  1
  C  C53  1  0.50000000  0.34606884  0.66679974  1
  C  C54  1  0.50000000  0.34621518  0.29178736  1
  C  C55  1  0.50000000  0.34605671  0.79151303  1
  C  C56  1  0.50000000  0.40775961  0.08285486  1
  C  C57  1  0.50000000  0.40760016  0.58398745  1
  C  C58  1  0.50000000  0.40772610  0.45938059  1
  C  C59  1  0.50000000  0.40761902  0.95753507  1
  C  C60  1  0.50000000  0.40772625  0.20831322  1
  C  C61  1  0.50000000  0.40750636  0.70847590  1
  C  C62  1  0.50000000  0.40771335  0.33371770  1
  C  C63  1  0.50000000  0.40753092  0.83300241  1
  C  C64  1  0.50000000  0.43752179  0.10449326  1
  C  C65  1  0.50000000  0.43833920  0.60476287  1
  C  C66  1  0.50000000  0.43727210  0.48093936  1
  C  C67  1  0.50000000  0.43820863  0.97837094  1
  C  C68  1  0.50000000  0.43753556  0.22993986  1
  C  C69  1  0.50000000  0.43816389  0.72923000  1
  C  C70  1  0.50000000  0.43748653  0.35535506  1
  C  C71  1  0.50000000  0.43825832  0.85363972  1
  C  C72  1  0.50000000  0.37694851  0.01998558  1
  C  C73  1  0.50000000  0.37700177  0.52129697  1
  C  C74  1  0.50000000  0.37716124  0.39615953  1
  C  C75  1  0.50000000  0.37702739  0.89524984  1
  C  C76  1  0.50000000  0.37717158  0.14534713  1
  C  C77  1  0.50000000  0.37694020  0.64602105  1
  C  C78  1  0.50000000  0.37713261  0.27075786  1
  C  C79  1  0.50000000  0.37687704  0.77063189  1
  C  C80  1  0.50000000  0.40776133  0.04047891  1
  C  C81  1  0.50000000  0.40759582  0.54231212  1
  C  C82  1  0.50000000  0.40772263  0.41700726  1
  C  C83  1  0.50000000  0.40761604  0.91587021  1
  C  C84  1  0.50000000  0.40775631  0.16612187  1
  C  C85  1  0.50000000  0.40753580  0.66684221  1
  C  C86  1  0.50000000  0.40771005  0.29154104  1
  C  C87  1  0.50000000  0.40750323  0.79137138  1
  C  C88  1  0.50000000  0.46921609  0.58427908  1
  C  C89  1  0.50000000  0.46971903  0.95711254  1
  C  C90  1  0.50000000  0.46895627  0.70851893  1
  C  C91  1  0.50000000  0.46898256  0.83264596  1
  C  C92  1  0.50000000  0.49979221  0.60528367  1
  C  C93  1  0.50000000  0.50033905  0.97597877  1
  C  C94  1  0.50000000  0.49961853  0.72921308  1
  C  C95  1  0.50000000  0.49971043  0.85305927  1
  C  C96  1  0.50000000  0.43730219  0.01890927  1
  C  C97  1  0.50000000  0.43818583  0.52147917  1
  C  C98  1  0.50000000  0.43746683  0.39534596  1
  C  C99  1  0.50000000  0.43835049  0.89507274  1
  C  C100  1  0.50000000  0.43753453  0.14448470  1
  C  C101  1  0.50000000  0.43825865  0.64618183  1
  C  C102  1  0.50000000  0.43752215  0.26991818  1
  C  C103  1  0.50000000  0.43815707  0.77060296  1
  C  C104  1  0.50000000  0.46970539  0.54270060  1
  C  C105  1  0.50000000  0.46923800  0.91553506  1
  C  C106  1  0.50000000  0.46898646  0.66716534  1
  C  C107  1  0.50000000  0.46895021  0.79130250  1
  C  C108  1  0.50000000  0.53069839  0.58525970  1
  C  C109  1  0.50000000  0.53097823  0.95597462  1
  C  C110  1  0.50000000  0.53038432  0.70868242  1
  C  C111  1  0.50000000  0.53041649  0.83233533  1
  C  C112  1  0.50000000  0.56138954  0.60585091  1
  C  C113  1  0.50000000  0.56168480  0.97569390  1
  C  C114  1  0.50000000  0.56121516  0.72927007  1
  C  C115  1  0.50000000  0.56132035  0.85270338  1
  C  C116  1  0.50000000  0.50031151  0.52381512  1
  C  C117  1  0.50000000  0.49981317  0.89451788  1
  C  C118  1  0.50000000  0.49970974  0.64673986  1
  C  C119  1  0.50000000  0.49961593  0.77060343  1
  C  C120  1  0.50000000  0.53094494  0.54381005  1
  C  C121  1  0.50000000  0.53072431  0.91452705  1
  C  C122  1  0.50000000  0.53041156  0.66745737  1
  C  C123  1  0.50000000  0.53039064  0.79110971  1
  C  C124  1  0.50000000  0.59209120  0.58544893  1
  C  C125  1  0.50000000  0.59206953  0.95587044  1
  C  C126  1  0.50000000  0.59197697  0.70878919  1
  C  C127  1  0.50000000  0.59201897  0.83229179  1
  C  C128  1  0.50000000  0.62286888  0.60563763  1
  C  C129  1  0.50000000  0.62298217  0.97567055  1
  C  C130  1  0.50000000  0.62271218  0.72932836  1
  C  C131  1  0.50000000  0.62280174  0.85289288  1
  C  C132  1  0.50000000  0.56165223  0.52410798  1
  C  C133  1  0.50000000  0.56141245  0.89393597  1
  C  C134  1  0.50000000  0.56131019  0.64708340  1
  C  C135  1  0.50000000  0.56121763  0.77050446  1
  C  C136  1  0.50000000  0.59202763  0.54393831  1
  C  C137  1  0.50000000  0.59211470  0.91434697  1
  C  C138  1  0.50000000  0.59201497  0.66747831  1
  C  C139  1  0.50000000  0.59198493  0.79097829  1
  C  C140  1  0.50000000  0.65374549  0.58491903  1
  C  C141  1  0.50000000  0.65342532  0.95675317  1
  C  C142  1  0.50000000  0.65359429  0.70869659  1
  C  C143  1  0.50000000  0.65356440  0.83236720  1
  C  C144  1  0.50000000  0.68576056  0.10382340  1
  C  C145  1  0.50000000  0.68421173  0.60530702  1
  C  C146  1  0.50000000  0.68651145  0.48205520  1
  C  C147  1  0.50000000  0.68525852  0.97756593  1
  C  C148  1  0.50000000  0.68493882  0.22997685  1
  C  C149  1  0.50000000  0.68431016  0.72915542  1
  C  C150  1  0.50000000  0.68547548  0.35607462  1
  C  C151  1  0.50000000  0.68428473  0.85307987  1
  C  C152  1  0.50000000  0.62292813  0.52414580  1
  C  C153  1  0.50000000  0.62289658  0.89416821  1
  C  C154  1  0.50000000  0.62278910  0.64687304  1
  C  C155  1  0.50000000  0.62272335  0.77043854  1
  C  C156  1  0.50000000  0.65339109  0.54302147  1
  C  C157  1  0.50000000  0.65375771  0.91487791  1
  C  C158  1  0.50000000  0.65354784  0.66738948  1
  C  C159  1  0.50000000  0.65360351  0.79106637  1
  C  C160  1  0.50000000  0.71482304  0.08073753  1
  C  C161  1  0.50000000  0.71476712  0.58387159  1
  C  C162  1  0.50000000  0.71529056  0.45896029  1
  C  C163  1  0.50000000  0.71520247  0.95520300  1
  C  C164  1  0.50000000  0.71406373  0.20681775  1
  C  C165  1  0.50000000  0.71438307  0.70775393  1
  C  C166  1  0.50000000  0.71429573  0.33251806  1
  C  C167  1  0.50000000  0.71439065  0.83165936  1
  C  C168  1  0.50000000  0.68659030  0.01771310  1
  C  C169  1  0.50000000  0.68518790  0.52219852  1
  C  C170  1  0.50000000  0.68570885  0.39585965  1
  C  C171  1  0.50000000  0.68422108  0.89445471  1
  C  C172  1  0.50000000  0.68551654  0.14359582  1
  C  C173  1  0.50000000  0.68427148  0.64669521  1
  C  C174  1  0.50000000  0.68490550  0.26966965  1
  C  C175  1  0.50000000  0.68430790  0.77060623  1
  C  C176  1  0.50000000  0.71537237  0.04077692  1
  C  C177  1  0.50000000  0.71514909  0.54451654  1
  C  C178  1  0.50000000  0.71475558  0.41898353  1
  C  C179  1  0.50000000  0.71478847  0.91585463  1
  C  C180  1  0.50000000  0.71434497  0.16712753  1
  C  C181  1  0.50000000  0.71438287  0.66809146  1
  C  C182  1  0.50000000  0.71402551  0.29282311  1
  C  C183  1  0.50000000  0.71438550  0.79199202  1
  H  H184  1  0.50000000  0.26170566  0.09693878  1
  H  H185  1  0.50000000  0.26159870  0.59752421  1
  H  H186  1  0.50000000  0.26160126  0.47260019  1
  H  H187  1  0.50000000  0.26157032  0.97190792  1
  H  H188  1  0.50000000  0.26178516  0.22221397  1
  H  H189  1  0.50000000  0.26156255  0.72253195  1
  H  H190  1  0.50000000  0.26179010  0.34740998  1
  H  H191  1  0.50000000  0.26153260  0.84712845  1
  H  H192  1  0.50000000  0.26166613  0.02720665  1
  H  H193  1  0.50000000  0.26165131  0.52772202  1
  H  H194  1  0.50000000  0.26170058  0.40281922  1
  H  H195  1  0.50000000  0.26158670  0.90235510  1
  H  H196  1  0.50000000  0.26179164  0.15248658  1
  H  H197  1  0.50000000  0.26157223  0.65270012  1
  H  H198  1  0.50000000  0.26178866  0.27762021  1
  H  H199  1  0.50000000  0.26154071  0.77738705  1
  H  H200  1  0.50000000  0.73894517  0.09546023  1
  H  H201  1  0.50000000  0.73860464  0.59900119  1
  H  H202  1  0.50000000  0.73977808  0.47284451  1
  H  H203  1  0.50000000  0.73921280  0.97004570  1
  H  H204  1  0.50000000  0.73827324  0.22138304  1
  H  H205  1  0.50000000  0.73829513  0.72279045  1
  H  H206  1  0.50000000  0.73869109  0.34663543  1
  H  H207  1  0.50000000  0.73832396  0.84661706  1
  H  H208  1  0.50000000  0.73984697  0.02687839  1
  H  H209  1  0.50000000  0.73913086  0.52959991  1
  H  H210  1  0.50000000  0.73888850  0.40426667  1
  H  H211  1  0.50000000  0.73862834  0.90071201  1
  H  H212  1  0.50000000  0.73874104  0.15299816  1
  H  H213  1  0.50000000  0.73828319  0.65308774  1
  H  H214  1  0.50000000  0.73821910  0.27820439  1
  H  H215  1  0.50000000  0.73832377  0.77700836  1
  H  H216  1  0.50000000  0.46159704  0.08981727  1
  H  H217  1  0.50000000  0.46087949  0.46545640  1
  H  H218  1  0.50000000  0.46158384  0.21519511  1
  H  H219  1  0.50000000  0.46154151  0.34066956  1
  H  H220  1  0.50000000  0.50155686  0.00755317  1
  H  H221  1  0.50000000  0.46088883  0.03443390  1
  H  H222  1  0.50000000  0.46152821  0.41003289  1
  H  H223  1  0.50000000  0.46156017  0.15923847  1
  H  H224  1  0.50000000  0.46158757  0.28462503  1
  H  H225  1  0.50000000  0.56174022  0.00738576  1
  H  H226  1  0.50000000  0.50151946  0.49224262  1
  H  H227  1  0.50000000  0.62181811  0.00727295  1
  H  H228  1  0.50000000  0.56178392  0.49242844  1
  H  H229  1  0.50000000  0.66142352  0.08954165  1
  H  H230  1  0.50000000  0.66287043  0.46650015  1
  H  H231  1  0.50000000  0.66063560  0.21560971  1
  H  H232  1  0.50000000  0.66112152  0.34179630  1
  H  H233  1  0.50000000  0.62176290  0.49255512  1
  H  H234  1  0.50000000  0.66296522  0.03329977  1
  H  H235  1  0.50000000  0.66134641  0.41009763  1
  H  H236  1  0.50000000  0.66116427  0.15786310  1
  H  H237  1  0.50000000  0.66058882  0.28402600  1
