# generated using pymatgen
data_H27C92
_symmetry_space_group_name_H-M   'P 1'
_cell_length_a   20.00000000
_cell_length_b   40.19450000
_cell_length_c   34.53303435
_cell_angle_alpha   90.00000000
_cell_angle_beta   90.00000000
_cell_angle_gamma   90.00000000
_symmetry_Int_Tables_number   1
_chemical_formula_structural   H27C92
_chemical_formula_sum   'H54 C184'
_cell_volume   27760.76098405
_cell_formula_units_Z   2
loop_
 _symmetry_equiv_pos_site_id
 _symmetry_equiv_pos_as_xyz
  1  'x, y, z'
loop_
 _atom_site_type_symbol
 _atom_site_label
 _atom_site_symmetry_multiplicity
 _atom_site_fract_x
 _atom_site_fract_y
 _atom_site_fract_z
 _atom_site_occupancy
  C  C0  1  0.50000000  0.28528094  0.08206858  1
  C  C1  1  0.50000000  0.28541751  0.58262187  1
  C  C2  1  0.50000000  0.28519145  0.45747169  1
  C  C3  1  0.50000000  0.28514714  0.95689334  1
  C  C4  1  0.50000000  0.28554804  0.20721208  1
  C  C5  1  0.50000000  0.28555347  0.70749239  1
  C  C6  1  0.50000000  0.28555797  0.33227872  1
  C  C7  1  0.50000000  0.28551330  0.83223560  1
  C  C8  1  0.50000000  0.31552102  0.10367430  1
  C  C9  1  0.50000000  0.31556653  0.60421499  1
  C  C10  1  0.50000000  0.31518256  0.47940052  1
  C  C11  1  0.50000000  0.31521505  0.97861053  1
  C  C12  1  0.50000000  0.31568846  0.22893524  1
  C  C13  1  0.50000000  0.31550343  0.72897849  1
  C  C14  1  0.50000000  0.31563948  0.35414236  1
  C  C15  1  0.50000000  0.31549044  0.85370790  1
  C  C16  1  0.50000000  0.28507983  0.04228534  1
  C  C17  1  0.50000000  0.28527365  0.54287115  1
  C  C18  1  0.50000000  0.28539126  0.41770801  1
  C  C19  1  0.50000000  0.28532759  0.91712772  1
  C  C20  1  0.50000000  0.28551449  0.16744255  1
  C  C21  1  0.50000000  0.28555768  0.66760719  1
  C  C22  1  0.50000000  0.28559103  0.29251482  1
  C  C23  1  0.50000000  0.28552274  0.79234316  1
  C  C24  1  0.50000000  0.34609604  0.08289327  1
  C  C25  1  0.50000000  0.34608835  0.58360107  1
  C  C26  1  0.50000000  0.34597883  0.45893449  1
  C  C27  1  0.50000000  0.34587691  0.95777036  1
  C  C28  1  0.50000000  0.34630452  0.20819060  1
  C  C29  1  0.50000000  0.34617306  0.70833904  1
  C  C30  1  0.50000000  0.34632047  0.33347828  1
  C  C31  1  0.50000000  0.34616596  0.83302668  1
  C  C32  1  0.50000000  0.37618284  0.10462154  1
  C  C33  1  0.50000000  0.37716344  0.60458315  1
  C  C34  1  0.50000000  0.37578212  0.48067216  1
  C  C35  1  0.50000000  0.37665441  0.97880932  1
  C  C36  1  0.50000000  0.37641680  0.22995822  1
  C  C37  1  0.50000000  0.37700227  0.72923429  1
  C  C38  1  0.50000000  0.37636912  0.35531833  1
  C  C39  1  0.50000000  0.37703484  0.85386057  1
  C  C40  1  0.50000000  0.31507808  0.02036538  1
  C  C41  1  0.50000000  0.31532017  0.52114876  1
  C  C42  1  0.50000000  0.31559833  0.39606735  1
  C  C43  1  0.50000000  0.31549757  0.89559463  1
  C  C44  1  0.50000000  0.31558875  0.14559788  1
  C  C45  1  0.50000000  0.31552659  0.64610033  1
  C  C46  1  0.50000000  0.31572686  0.27082425  1
  C  C47  1  0.50000000  0.31549587  0.77085838  1
  C  C48  1  0.50000000  0.34589125  0.04080811  1
  C  C49  1  0.50000000  0.34596454  0.54201474  1
  C  C50  1  0.50000000  0.34617065  0.41684066  1
  C  C51  1  0.50000000  0.34601657  0.91618139  1
  C  C52  1  0.50000000  0.34625138  0.16626267  1
  C  C53  1  0.50000000  0.34619241  0.66677971  1
  C  C54  1  0.50000000  0.34635537  0.29154098  1
  C  C55  1  0.50000000  0.34615867  0.79147702  1
  C  C56  1  0.50000000  0.40788062  0.58408261  1
  C  C57  1  0.50000000  0.40827867  0.95749558  1
  C  C58  1  0.50000000  0.40768383  0.70850678  1
  C  C59  1  0.50000000  0.40770714  0.83281596  1
  C  C60  1  0.50000000  0.43849441  0.60508338  1
  C  C61  1  0.50000000  0.43873845  0.97632290  1
  C  C62  1  0.50000000  0.43838453  0.72920773  1
  C  C63  1  0.50000000  0.43840567  0.85323923  1
  C  C64  1  0.50000000  0.37568445  0.01905772  1
  C  C65  1  0.50000000  0.37673001  0.52094686  1
  C  C66  1  0.50000000  0.37626206  0.39513600  1
  C  C67  1  0.50000000  0.37709011  0.89519729  1
  C  C68  1  0.50000000  0.37629402  0.14442908  1
  C  C69  1  0.50000000  0.37707192  0.64594768  1
  C  C70  1  0.50000000  0.37645378  0.26974772  1
  C  C71  1  0.50000000  0.37699562  0.77057172  1
  C  C72  1  0.50000000  0.40834004  0.54226834  1
  C  C73  1  0.50000000  0.40780931  0.91569277  1
  C  C74  1  0.50000000  0.40773048  0.66697672  1
  C  C75  1  0.50000000  0.40767978  0.79128723  1
  C  C76  1  0.50000000  0.46939252  0.58492084  1
  C  C77  1  0.50000000  0.46952636  0.95634115  1
  C  C78  1  0.50000000  0.46922226  0.70861289  1
  C  C79  1  0.50000000  0.46921753  0.83247702  1
  C  C80  1  0.50000000  0.50001835  0.60550021  1
  C  C81  1  0.50000000  0.49999895  0.97621081  1
  C  C82  1  0.50000000  0.50000708  0.72917647  1
  C  C83  1  0.50000000  0.50000889  0.85288722  1
  C  C84  1  0.50000000  0.43877564  0.52335357  1
  C  C85  1  0.50000000  0.43843986  0.89469324  1
  C  C86  1  0.50000000  0.43842694  0.64654681  1
  C  C87  1  0.50000000  0.43838048  0.77057569  1
  C  C88  1  0.50000000  0.46955039  0.54335842  1
  C  C89  1  0.50000000  0.46935809  0.91481215  1
  C  C90  1  0.50000000  0.46922977  0.66730095  1
  C  C91  1  0.50000000  0.46922431  0.79116103  1
  C  C92  1  0.50000000  0.53064384  0.58491889  1
  C  C93  1  0.50000000  0.53047666  0.95634380  1
  C  C94  1  0.50000000  0.53079122  0.70861635  1
  C  C95  1  0.50000000  0.53079901  0.83247850  1
  C  C96  1  0.50000000  0.56153518  0.60509669  1
  C  C97  1  0.50000000  0.56126074  0.97632587  1
  C  C98  1  0.50000000  0.56162715  0.72921331  1
  C  C99  1  0.50000000  0.56160995  0.85324307  1
  C  C100  1  0.50000000  0.50002019  0.52344889  1
  C  C101  1  0.50000000  0.50000668  0.89426153  1
  C  C102  1  0.50000000  0.50001444  0.64688576  1
  C  C103  1  0.50000000  0.50000810  0.77058711  1
  C  C104  1  0.50000000  0.53048878  0.54335919  1
  C  C105  1  0.50000000  0.53065303  0.91481385  1
  C  C106  1  0.50000000  0.53079625  0.66730660  1
  C  C107  1  0.50000000  0.53079153  0.79116449  1
  C  C108  1  0.50000000  0.59215321  0.58409580  1
  C  C109  1  0.50000000  0.59171347  0.95750166  1
  C  C110  1  0.50000000  0.59232792  0.70851583  1
  C  C111  1  0.50000000  0.59230873  0.83282412  1
  C  C112  1  0.50000000  0.62384175  0.10460729  1
  C  C113  1  0.50000000  0.62286306  0.60459761  1
  C  C114  1  0.50000000  0.62424875  0.48067366  1
  C  C115  1  0.50000000  0.62333574  0.97882776  1
  C  C116  1  0.50000000  0.62359090  0.22995626  1
  C  C117  1  0.50000000  0.62300754  0.72924197  1
  C  C118  1  0.50000000  0.62364705  0.35532437  1
  C  C119  1  0.50000000  0.62297655  0.85387193  1
  C  C120  1  0.50000000  0.56127120  0.52336548  1
  C  C121  1  0.50000000  0.56156753  0.89469226  1
  C  C122  1  0.50000000  0.56159720  0.64655286  1
  C  C123  1  0.50000000  0.56163354  0.77058238  1
  C  C124  1  0.50000000  0.59169256  0.54228457  1
  C  C125  1  0.50000000  0.59219298  0.91569369  1
  C  C126  1  0.50000000  0.59229595  0.66698528  1
  C  C127  1  0.50000000  0.59233599  0.79129671  1
  C  C128  1  0.50000000  0.65393150  0.08287734  1
  C  C129  1  0.50000000  0.65393180  0.58360064  1
  C  C130  1  0.50000000  0.65404486  0.45894175  1
  C  C131  1  0.50000000  0.65411763  0.95778821  1
  C  C132  1  0.50000000  0.65370256  0.20818848  1
  C  C133  1  0.50000000  0.65384028  0.70835228  1
  C  C134  1  0.50000000  0.65369669  0.33347757  1
  C  C135  1  0.50000000  0.65384816  0.83304411  1
  C  C136  1  0.50000000  0.68449964  0.10367149  1
  C  C137  1  0.50000000  0.68444941  0.60421843  1
  C  C138  1  0.50000000  0.68485366  0.47940371  1
  C  C139  1  0.50000000  0.68477457  0.97864347  1
  C  C140  1  0.50000000  0.68431711  0.22893251  1
  C  C141  1  0.50000000  0.68450130  0.72899976  1
  C  C142  1  0.50000000  0.68437174  0.35414399  1
  C  C143  1  0.50000000  0.68451713  0.85372987  1
  C  C144  1  0.50000000  0.62430245  0.01906944  1
  C  C145  1  0.50000000  0.62329354  0.52094677  1
  C  C146  1  0.50000000  0.62375780  0.39514322  1
  C  C147  1  0.50000000  0.62291550  0.89520607  1
  C  C148  1  0.50000000  0.62372262  0.14441563  1
  C  C149  1  0.50000000  0.62295943  0.64595048  1
  C  C150  1  0.50000000  0.62355705  0.26974892  1
  C  C151  1  0.50000000  0.62301930  0.77058880  1
  C  C152  1  0.50000000  0.65409560  0.04082540  1
  C  C153  1  0.50000000  0.65405880  0.54200847  1
  C  C154  1  0.50000000  0.65385017  0.41684444  1
  C  C155  1  0.50000000  0.65398228  0.91619877  1
  C  C156  1  0.50000000  0.65376146  0.16625880  1
  C  C157  1  0.50000000  0.65382754  0.66679901  1
  C  C158  1  0.50000000  0.65365465  0.29154452  1
  C  C159  1  0.50000000  0.65385691  0.79148878  1
  C  C160  1  0.50000000  0.71474035  0.08207458  1
  C  C161  1  0.50000000  0.71460149  0.58263838  1
  C  C162  1  0.50000000  0.71483046  0.45746403  1
  C  C163  1  0.50000000  0.71484220  0.95692441  1
  C  C164  1  0.50000000  0.71445585  0.20721103  1
  C  C165  1  0.50000000  0.71445352  0.70750562  1
  C  C166  1  0.50000000  0.71445340  0.33227573  1
  C  C167  1  0.50000000  0.71449414  0.83226011  1
  C  C168  1  0.50000000  0.68489637  0.02040217  1
  C  C169  1  0.50000000  0.68469703  0.52116199  1
  C  C170  1  0.50000000  0.68441637  0.39606488  1
  C  C171  1  0.50000000  0.68450224  0.89561568  1
  C  C172  1  0.50000000  0.68442804  0.14559730  1
  C  C173  1  0.50000000  0.68450136  0.64610061  1
  C  C174  1  0.50000000  0.68428178  0.27082252  1
  C  C175  1  0.50000000  0.68452202  0.77087657  1
  C  C176  1  0.50000000  0.71491497  0.04228792  1
  C  C177  1  0.50000000  0.71474721  0.54286945  1
  C  C178  1  0.50000000  0.71463304  0.41770777  1
  C  C179  1  0.50000000  0.71466682  0.91716131  1
  C  C180  1  0.50000000  0.71449562  0.16744597  1
  C  C181  1  0.50000000  0.71446000  0.66762307  1
  C  C182  1  0.50000000  0.71441662  0.29251259  1
  C  C183  1  0.50000000  0.71449032  0.79236263  1
  H  H184  1  0.50000000  0.26142052  0.09727800  1
  H  H185  1  0.50000000  0.26146803  0.59757891  1
  H  H186  1  0.50000000  0.26108666  0.47212533  1
  H  H187  1  0.50000000  0.26115681  0.97180266  1
  H  H188  1  0.50000000  0.26156925  0.22215487  1
  H  H189  1  0.50000000  0.26160049  0.72245227  1
  H  H190  1  0.50000000  0.26153034  0.34707448  1
  H  H191  1  0.50000000  0.26156326  0.84721968  1
  H  H192  1  0.50000000  0.26107283  0.02740866  1
  H  H193  1  0.50000000  0.26129113  0.52796765  1
  H  H194  1  0.50000000  0.26147299  0.40266493  1
  H  H195  1  0.50000000  0.26144322  0.90199533  1
  H  H196  1  0.50000000  0.26153263  0.15253273  1
  H  H197  1  0.50000000  0.26156439  0.65273812  1
  H  H198  1  0.50000000  0.26162660  0.27755477  1
  H  H199  1  0.50000000  0.26156907  0.77738411  1
  H  H200  1  0.50000000  0.73859508  0.09728237  1
  H  H201  1  0.50000000  0.73854881  0.59759240  1
  H  H202  1  0.50000000  0.73893311  0.47212427  1
  H  H203  1  0.50000000  0.73883717  0.97183652  1
  H  H204  1  0.50000000  0.73843649  0.22214830  1
  H  H205  1  0.50000000  0.73840768  0.72246869  1
  H  H206  1  0.50000000  0.73847999  0.34706579  1
  H  H207  1  0.50000000  0.73843836  0.84724689  1
  H  H208  1  0.50000000  0.73891173  0.02738913  1
  H  H209  1  0.50000000  0.73871580  0.52796518  1
  H  H210  1  0.50000000  0.73854698  0.40266077  1
  H  H211  1  0.50000000  0.73855344  0.90203625  1
  H  H212  1  0.50000000  0.73847806  0.15252930  1
  H  H213  1  0.50000000  0.73846929  0.65277636  1
  H  H214  1  0.50000000  0.73837989  0.27754892  1
  H  H215  1  0.50000000  0.73845552  0.77742588  1
  H  H216  1  0.50000000  0.40016674  0.08970911  1
  H  H217  1  0.50000000  0.39921152  0.46480045  1
  H  H218  1  0.50000000  0.40039687  0.21500766  1
  H  H219  1  0.50000000  0.40037750  0.34042207  1
  H  H220  1  0.50000000  0.44006412  0.00795710  1
  H  H221  1  0.50000000  0.39915520  0.03481078  1
  H  H222  1  0.50000000  0.40020641  0.41016026  1
  H  H223  1  0.50000000  0.40029992  0.15931674  1
  H  H224  1  0.50000000  0.40044955  0.28467558  1
  H  H225  1  0.50000000  0.49999867  0.00797420  1
  H  H226  1  0.50000000  0.44006235  0.49168155  1
  H  H227  1  0.50000000  0.55992402  0.00796599  1
  H  H228  1  0.50000000  0.50001189  0.49165022  1
  H  H229  1  0.50000000  0.59985990  0.08968700  1
  H  H230  1  0.50000000  0.60083324  0.46477873  1
  H  H231  1  0.50000000  0.59961263  0.21500443  1
  H  H232  1  0.50000000  0.59963696  0.34043654  1
  H  H233  1  0.50000000  0.55999102  0.49169417  1
  H  H234  1  0.50000000  0.60082886  0.03482406  1
  H  H235  1  0.50000000  0.59982102  0.41016130  1
  H  H236  1  0.50000000  0.59971463  0.15929064  1
  H  H237  1  0.50000000  0.59956257  0.28467421  1
