# generated using pymatgen
data_H19C92
_symmetry_space_group_name_H-M   'P 1'
_cell_length_a   20.00000000
_cell_length_b   40.19450000
_cell_length_c   34.53698043
_cell_angle_alpha   90.00000000
_cell_angle_beta   90.00000000
_cell_angle_gamma   90.00000000
_symmetry_Int_Tables_number   1
_chemical_formula_structural   H19C92
_chemical_formula_sum   'H38 C184'
_cell_volume   27763.93319821
_cell_formula_units_Z   2
loop_
 _symmetry_equiv_pos_site_id
 _symmetry_equiv_pos_as_xyz
  1  'x, y, z'
loop_
 _atom_site_type_symbol
 _atom_site_label
 _atom_site_symmetry_multiplicity
 _atom_site_fract_x
 _atom_site_fract_y
 _atom_site_fract_z
 _atom_site_occupancy
  C  C0  1  0.50000000  0.28634569  0.58363423  1
  C  C1  1  0.50000000  0.28600296  0.95593442  1
  C  C2  1  0.50000000  0.28735003  0.70780669  1
  C  C3  1  0.50000000  0.28716304  0.83177358  1
  C  C4  1  0.50000000  0.31390721  0.10336067  1
  C  C5  1  0.50000000  0.31680495  0.60490880  1
  C  C6  1  0.50000000  0.31573102  0.48185274  1
  C  C7  1  0.50000000  0.31625120  0.97743471  1
  C  C8  1  0.50000000  0.31241564  0.22991581  1
  C  C9  1  0.50000000  0.31753759  0.72916481  1
  C  C10  1  0.50000000  0.31312239  0.35640823  1
  C  C11  1  0.50000000  0.31716763  0.85348672  1
  C  C12  1  0.50000000  0.28597546  0.54399951  1
  C  C13  1  0.50000000  0.28633315  0.91629279  1
  C  C14  1  0.50000000  0.28716684  0.66812779  1
  C  C15  1  0.50000000  0.28732313  0.79207670  1
  C  C16  1  0.50000000  0.34407701  0.08214633  1
  C  C17  1  0.50000000  0.34748232  0.58420498  1
  C  C18  1  0.50000000  0.34490439  0.45985864  1
  C  C19  1  0.50000000  0.34725759  0.95702556  1
  C  C20  1  0.50000000  0.34228951  0.20797644  1
  C  C21  1  0.50000000  0.34814608  0.70845627  1
  C  C22  1  0.50000000  0.34265516  0.33404298  1
  C  C23  1  0.50000000  0.34803189  0.83300560  1
  C  C24  1  0.50000000  0.37429584  0.10344960  1
  C  C25  1  0.50000000  0.37855307  0.60461638  1
  C  C26  1  0.50000000  0.37631212  0.47998241  1
  C  C27  1  0.50000000  0.37753128  0.97844476  1
  C  C28  1  0.50000000  0.37284504  0.22902061  1
  C  C29  1  0.50000000  0.37899981  0.72924469  1
  C  C30  1  0.50000000  0.37350773  0.35464931  1
  C  C31  1  0.50000000  0.37875380  0.85393242  1
  C  C32  1  0.50000000  0.31582193  0.01801133  1
  C  C33  1  0.50000000  0.31619152  0.52243400  1
  C  C34  1  0.50000000  0.31383758  0.39643140  1
  C  C35  1  0.50000000  0.31679103  0.89498661  1
  C  C36  1  0.50000000  0.31317228  0.14339972  1
  C  C37  1  0.50000000  0.31717077  0.64640472  1
  C  C38  1  0.50000000  0.31242465  0.26999165  1
  C  C39  1  0.50000000  0.31752468  0.77073797  1
  C  C40  1  0.50000000  0.34499780  0.04000176  1
  C  C41  1  0.50000000  0.34722166  0.54282864  1
  C  C42  1  0.50000000  0.34398388  0.41770857  1
  C  C43  1  0.50000000  0.34749314  0.91565483  1
  C  C44  1  0.50000000  0.34268224  0.16582128  1
  C  C45  1  0.50000000  0.34803820  0.66688703  1
  C  C46  1  0.50000000  0.34229663  0.29190652  1
  C  C47  1  0.50000000  0.34812855  0.79143399  1
  C  C48  1  0.50000000  0.40546612  0.08292423  1
  C  C49  1  0.50000000  0.40912811  0.58332450  1
  C  C50  1  0.50000000  0.40659182  0.45849451  1
  C  C51  1  0.50000000  0.40877870  0.95802149  1
  C  C52  1  0.50000000  0.40366492  0.20810602  1
  C  C53  1  0.50000000  0.40966972  0.70824474  1
  C  C54  1  0.50000000  0.40401685  0.33334230  1
  C  C55  1  0.50000000  0.40963616  0.83324478  1
  C  C56  1  0.50000000  0.43553512  0.10443368  1
  C  C57  1  0.50000000  0.44019091  0.60382379  1
  C  C58  1  0.50000000  0.43777420  0.47896255  1
  C  C59  1  0.50000000  0.43922502  0.97937943  1
  C  C60  1  0.50000000  0.43411384  0.22929969  1
  C  C61  1  0.50000000  0.44025639  0.72910864  1
  C  C62  1  0.50000000  0.43480169  0.35395308  1
  C  C63  1  0.50000000  0.44017438  0.85423706  1
  C  C64  1  0.50000000  0.37639270  0.01988022  1
  C  C65  1  0.50000000  0.37749149  0.52141723  1
  C  C66  1  0.50000000  0.37422119  0.39643491  1
  C  C67  1  0.50000000  0.37856643  0.89524524  1
  C  C68  1  0.50000000  0.37355461  0.14524159  1
  C  C69  1  0.50000000  0.37875357  0.64594085  1
  C  C70  1  0.50000000  0.37284362  0.27085993  1
  C  C71  1  0.50000000  0.37898480  0.77064035  1
  C  C72  1  0.50000000  0.40667345  0.04139110  1
  C  C73  1  0.50000000  0.40873433  0.54185411  1
  C  C74  1  0.50000000  0.40538886  0.41697498  1
  C  C75  1  0.50000000  0.40914400  0.91655095  1
  C  C76  1  0.50000000  0.40405592  0.16657044  1
  C  C77  1  0.50000000  0.40963491  0.66662643  1
  C  C78  1  0.50000000  0.40364541  0.29180873  1
  C  C79  1  0.50000000  0.40966198  0.79161664  1
  C  C80  1  0.50000000  0.46662176  0.08416041  1
  C  C81  1  0.50000000  0.47075948  0.58278344  1
  C  C82  1  0.50000000  0.46803367  0.45754462  1
  C  C83  1  0.50000000  0.47073780  0.95904676  1
  C  C84  1  0.50000000  0.46493669  0.20885038  1
  C  C85  1  0.50000000  0.47088734  0.70816203  1
  C  C86  1  0.50000000  0.46509215  0.33242894  1
  C  C87  1  0.50000000  0.47086775  0.83322476  1
  C  C88  1  0.50000000  0.49623198  0.10649582  1
  C  C89  1  0.50000000  0.50162317  0.60416984  1
  C  C90  1  0.50000000  0.49954808  0.47763044  1
  C  C91  1  0.50000000  0.50140558  0.98037793  1
  C  C92  1  0.50000000  0.49561577  0.22937927  1
  C  C93  1  0.50000000  0.50155565  0.72912933  1
  C  C94  1  0.50000000  0.49586392  0.35239734  1
  C  C95  1  0.50000000  0.50155878  0.85401417  1
  C  C96  1  0.50000000  0.43786915  0.02094938  1
  C  C97  1  0.50000000  0.43917480  0.52051862  1
  C  C98  1  0.50000000  0.43546817  0.39550774  1
  C  C99  1  0.50000000  0.44020672  0.89605352  1
  C  C100  1  0.50000000  0.43485986  0.14599405  1
  C  C101  1  0.50000000  0.44017086  0.64562637  1
  C  C102  1  0.50000000  0.43410572  0.27064580  1
  C  C103  1  0.50000000  0.44024880  0.77074616  1
  C  C104  1  0.50000000  0.46813602  0.04240770  1
  C  C105  1  0.50000000  0.47068817  0.54084621  1
  C  C106  1  0.50000000  0.46653969  0.41581632  1
  C  C107  1  0.50000000  0.47078092  0.91709179  1
  C  C108  1  0.50000000  0.46514677  0.16755190  1
  C  C109  1  0.50000000  0.47086857  0.66662317  1
  C  C110  1  0.50000000  0.46491666  0.29113794  1
  C  C111  1  0.50000000  0.47088415  0.79168311  1
  C  C112  1  0.50000000  0.52654922  0.08666220  1
  C  C113  1  0.50000000  0.53226052  0.58393470  1
  C  C114  1  0.50000000  0.52771124  0.45267869  1
  C  C115  1  0.50000000  0.53269752  0.95802753  1
  C  C116  1  0.50000000  0.52588705  0.20844939  1
  C  C117  1  0.50000000  0.53216006  0.70845687  1
  C  C118  1  0.50000000  0.52598704  0.33119586  1
  C  C119  1  0.50000000  0.53215229  0.83292268  1
  C  C120  1  0.50000000  0.56308272  0.60531429  1
  C  C121  1  0.50000000  0.56427004  0.97442226  1
  C  C122  1  0.50000000  0.56297768  0.72925343  1
  C  C123  1  0.50000000  0.56300690  0.85321309  1
  C  C124  1  0.50000000  0.49967707  0.02232000  1
  C  C125  1  0.50000000  0.50134453  0.51954118  1
  C  C126  1  0.50000000  0.49616724  0.39351668  1
  C  C127  1  0.50000000  0.50163180  0.89568885  1
  C  C128  1  0.50000000  0.49595172  0.14763042  1
  C  C129  1  0.50000000  0.50155475  0.64584050  1
  C  C130  1  0.50000000  0.49562333  0.27064858  1
  C  C131  1  0.50000000  0.50155861  0.77073105  1
  C  C132  1  0.50000000  0.52785399  0.04733405  1
  C  C133  1  0.50000000  0.53266675  0.54181600  1
  C  C134  1  0.50000000  0.52648921  0.41336420  1
  C  C135  1  0.50000000  0.53226506  0.91593543  1
  C  C136  1  0.50000000  0.52607234  0.16889292  1
  C  C137  1  0.50000000  0.53214132  0.66693854  1
  C  C138  1  0.50000000  0.52587923  0.29164656  1
  C  C139  1  0.50000000  0.53216680  0.79140613  1
  C  C140  1  0.50000000  0.59438970  0.58618093  1
  C  C141  1  0.50000000  0.59476260  0.95473287  1
  C  C142  1  0.50000000  0.59380831  0.70878425  1
  C  C143  1  0.50000000  0.59391998  0.83251966  1
  C  C144  1  0.50000000  0.62507470  0.60610905  1
  C  C145  1  0.50000000  0.62464073  0.97555420  1
  C  C146  1  0.50000000  0.62455350  0.72930734  1
  C  C147  1  0.50000000  0.62479680  0.85259582  1
  C  C148  1  0.50000000  0.56424658  0.52543513  1
  C  C149  1  0.50000000  0.56310401  0.89453461  1
  C  C150  1  0.50000000  0.56297578  0.64661471  1
  C  C151  1  0.50000000  0.56298353  0.77060593  1
  C  C152  1  0.50000000  0.59474285  0.54514803  1
  C  C153  1  0.50000000  0.59441154  0.91368254  1
  C  C154  1  0.50000000  0.59390140  0.66731601  1
  C  C155  1  0.50000000  0.59381592  0.79106012  1
  C  C156  1  0.50000000  0.65575203  0.58501429  1
  C  C157  1  0.50000000  0.65551417  0.95642639  1
  C  C158  1  0.50000000  0.65561040  0.70877377  1
  C  C159  1  0.50000000  0.65579563  0.83235777  1
  C  C160  1  0.50000000  0.68679385  0.60486164  1
  C  C161  1  0.50000000  0.68603877  0.97699245  1
  C  C162  1  0.50000000  0.68633006  0.72911929  1
  C  C163  1  0.50000000  0.68654446  0.85298481  1
  C  C164  1  0.50000000  0.62460063  0.52433414  1
  C  C165  1  0.50000000  0.62508544  0.89373194  1
  C  C166  1  0.50000000  0.62479188  0.64725052  1
  C  C167  1  0.50000000  0.62455696  0.77055253  1
  C  C168  1  0.50000000  0.65548800  0.54339838  1
  C  C169  1  0.50000000  0.65576773  0.91481620  1
  C  C170  1  0.50000000  0.65579656  0.66750656  1
  C  C171  1  0.50000000  0.65560496  0.79109741  1
  C  C172  1  0.50000000  0.71642190  0.58316437  1
  C  C173  1  0.50000000  0.71604498  0.95719213  1
  C  C174  1  0.50000000  0.71629998  0.70796960  1
  C  C175  1  0.50000000  0.71642290  0.83175614  1
  C  C176  1  0.50000000  0.68598995  0.52276190  1
  C  C177  1  0.50000000  0.68681331  0.89498077  1
  C  C178  1  0.50000000  0.68654831  0.64685563  1
  C  C179  1  0.50000000  0.68632067  0.77077556  1
  C  C180  1  0.50000000  0.71597919  0.54260474  1
  C  C181  1  0.50000000  0.71647961  0.91661445  1
  C  C182  1  0.50000000  0.71641824  0.66810398  1
  C  C183  1  0.50000000  0.71630357  0.79188227  1
  H  H184  1  0.50000000  0.26258414  0.59899330  1
  H  H185  1  0.50000000  0.26234591  0.97176403  1
  H  H186  1  0.50000000  0.26348152  0.72289207  1
  H  H187  1  0.50000000  0.26320074  0.84668403  1
  H  H188  1  0.50000000  0.26225100  0.52833124  1
  H  H189  1  0.50000000  0.26254172  0.90098342  1
  H  H190  1  0.50000000  0.26311219  0.65341724  1
  H  H191  1  0.50000000  0.26349857  0.77687595  1
  H  H192  1  0.50000000  0.74056180  0.59773240  1
  H  H193  1  0.50000000  0.73956489  0.97323933  1
  H  H194  1  0.50000000  0.74019070  0.72299749  1
  H  H195  1  0.50000000  0.74033547  0.84678598  1
  H  H196  1  0.50000000  0.73957692  0.52673926  1
  H  H197  1  0.50000000  0.74054341  0.90185366  1
  H  H198  1  0.50000000  0.74042888  0.65328711  1
  H  H199  1  0.50000000  0.74008404  0.77661070  1
  H  H200  1  0.50000000  0.29013423  0.08801061  1
  H  H201  1  0.50000000  0.29134507  0.46777453  1
  H  H202  1  0.50000000  0.28835035  0.21511074  1
  H  H203  1  0.50000000  0.28881410  0.34215701  1
  H  H204  1  0.50000000  0.29141158  0.03202147  1
  H  H205  1  0.50000000  0.28997933  0.41157013  1
  H  H206  1  0.50000000  0.28888923  0.15769241  1
  H  H207  1  0.50000000  0.28837909  0.28484188  1
  H  H208  1  0.50000000  0.55014822  0.10222860  1
  H  H209  1  0.50000000  0.55281506  0.46262249  1
  H  H210  1  0.50000000  0.54960716  0.22377146  1
  H  H211  1  0.50000000  0.54984380  0.34617560  1
  H  H212  1  0.50000000  0.56860633  0.00483995  1
  H  H213  1  0.50000000  0.55303589  0.03758966  1
  H  H214  1  0.50000000  0.55017033  0.39797245  1
  H  H215  1  0.50000000  0.54999395  0.15402361  1
  H  H216  1  0.50000000  0.54972857  0.27660511  1
  H  H217  1  0.50000000  0.62405545  0.00733126  1
  H  H218  1  0.50000000  0.56869116  0.49499548  1
  H  H219  1  0.50000000  0.68549084  0.00869896  1
  H  H220  1  0.50000000  0.62399822  0.49257947  1
  H  H221  1  0.50000000  0.68542878  0.49103537  1
