# generated using pymatgen
data_H19C92
_symmetry_space_group_name_H-M   'P 1'
_cell_length_a   20.00000000
_cell_length_b   40.19450000
_cell_length_c   34.55030501
_cell_angle_alpha   90.00000000
_cell_angle_beta   90.00000000
_cell_angle_gamma   90.00000000
_symmetry_Int_Tables_number   1
_chemical_formula_structural   H19C92
_chemical_formula_sum   'H38 C184'
_cell_volume   27774.64469093
_cell_formula_units_Z   2
loop_
 _symmetry_equiv_pos_site_id
 _symmetry_equiv_pos_as_xyz
  1  'x, y, z'
loop_
 _atom_site_type_symbol
 _atom_site_label
 _atom_site_symmetry_multiplicity
 _atom_site_fract_x
 _atom_site_fract_y
 _atom_site_fract_z
 _atom_site_occupancy
  C  C0  1  0.50000000  0.28371942  0.58529136  1
  C  C1  1  0.50000000  0.28358066  0.95518554  1
  C  C2  1  0.50000000  0.28477967  0.70869994  1
  C  C3  1  0.50000000  0.28443776  0.83077387  1
  C  C4  1  0.50000000  0.31359607  0.60644978  1
  C  C5  1  0.50000000  0.31356313  0.97499427  1
  C  C6  1  0.50000000  0.31504918  0.72920520  1
  C  C7  1  0.50000000  0.31428562  0.85191236  1
  C  C8  1  0.50000000  0.28354583  0.54484150  1
  C  C9  1  0.50000000  0.28371712  0.91473506  1
  C  C10  1  0.50000000  0.28449444  0.66907031  1
  C  C11  1  0.50000000  0.28475673  0.79113037  1
  C  C12  1  0.50000000  0.34442729  0.58658508  1
  C  C13  1  0.50000000  0.34386675  0.95410590  1
  C  C14  1  0.50000000  0.34568103  0.70877681  1
  C  C15  1  0.50000000  0.34537865  0.83228859  1
  C  C16  1  0.50000000  0.37600609  0.60558972  1
  C  C17  1  0.50000000  0.37419764  0.97393366  1
  C  C18  1  0.50000000  0.37663161  0.72931415  1
  C  C19  1  0.50000000  0.37634415  0.85302592  1
  C  C20  1  0.50000000  0.31351292  0.52503058  1
  C  C21  1  0.50000000  0.31355726  0.89345971  1
  C  C22  1  0.50000000  0.31433948  0.64795338  1
  C  C23  1  0.50000000  0.31504244  0.77065044  1
  C  C24  1  0.50000000  0.34384737  0.54582007  1
  C  C25  1  0.50000000  0.34440875  0.91331465  1
  C  C26  1  0.50000000  0.34542100  0.66757620  1
  C  C27  1  0.50000000  0.34566426  0.79108034  1
  C  C28  1  0.50000000  0.41115534  0.08609160  1
  C  C29  1  0.50000000  0.40656476  0.58412553  1
  C  C30  1  0.50000000  0.41020536  0.45321468  1
  C  C31  1  0.50000000  0.40587354  0.95771880  1
  C  C32  1  0.50000000  0.41120759  0.20821327  1
  C  C33  1  0.50000000  0.40722174  0.70858385  1
  C  C34  1  0.50000000  0.41116579  0.33136485  1
  C  C35  1  0.50000000  0.40705261  0.83284571  1
  C  C36  1  0.50000000  0.44134878  0.10619450  1
  C  C37  1  0.50000000  0.43743000  0.60438715  1
  C  C38  1  0.50000000  0.43854317  0.47795854  1
  C  C39  1  0.50000000  0.43710412  0.98008495  1
  C  C40  1  0.50000000  0.44142931  0.22932352  1
  C  C41  1  0.50000000  0.43786951  0.72921222  1
  C  C42  1  0.50000000  0.44134608  0.35262301  1
  C  C43  1  0.50000000  0.43765525  0.85397229  1
  C  C44  1  0.50000000  0.37414495  0.52592327  1
  C  C45  1  0.50000000  0.37599596  0.89429501  1
  C  C46  1  0.50000000  0.37638128  0.64683833  1
  C  C47  1  0.50000000  0.37661866  0.77054545  1
  C  C48  1  0.50000000  0.41015818  0.04678320  1
  C  C49  1  0.50000000  0.40585654  0.54212476  1
  C  C50  1  0.50000000  0.41113004  0.41391243  1
  C  C51  1  0.50000000  0.40656909  0.91572344  1
  C  C52  1  0.50000000  0.41116602  0.16863548  1
  C  C53  1  0.50000000  0.40707822  0.66702429  1
  C  C54  1  0.50000000  0.41118938  0.29178761  1
  C  C55  1  0.50000000  0.40720459  0.79127726  1
  C  C56  1  0.50000000  0.47105557  0.08399898  1
  C  C57  1  0.50000000  0.46815016  0.58297339  1
  C  C58  1  0.50000000  0.46986118  0.45771582  1
  C  C59  1  0.50000000  0.46783666  0.95889185  1
  C  C60  1  0.50000000  0.47215263  0.20881237  1
  C  C61  1  0.50000000  0.46856560  0.70822583  1
  C  C62  1  0.50000000  0.47204157  0.33249428  1
  C  C63  1  0.50000000  0.46846388  0.83322218  1
  C  C64  1  0.50000000  0.50196862  0.10447243  1
  C  C65  1  0.50000000  0.49878812  0.60386428  1
  C  C66  1  0.50000000  0.50017164  0.47907533  1
  C  C67  1  0.50000000  0.49920380  0.97927468  1
  C  C68  1  0.50000000  0.50294235  0.22934504  1
  C  C69  1  0.50000000  0.49912035  0.72908673  1
  C  C70  1  0.50000000  0.50241360  0.35393635  1
  C  C71  1  0.50000000  0.49901470  0.85420228  1
  C  C72  1  0.50000000  0.43849346  0.02198952  1
  C  C73  1  0.50000000  0.43711469  0.51982789  1
  C  C74  1  0.50000000  0.44131966  0.39378557  1
  C  C75  1  0.50000000  0.43743652  0.89546939  1
  C  C76  1  0.50000000  0.44136650  0.14737652  1
  C  C77  1  0.50000000  0.43766537  0.64588444  1
  C  C78  1  0.50000000  0.44140187  0.27062974  1
  C  C79  1  0.50000000  0.43785789  0.77064953  1
  C  C80  1  0.50000000  0.46983452  0.04223125  1
  C  C81  1  0.50000000  0.46784583  0.54101154  1
  C  C82  1  0.50000000  0.47105095  0.41595713  1
  C  C83  1  0.50000000  0.46814310  0.91691843  1
  C  C84  1  0.50000000  0.47207325  0.16748736  1
  C  C85  1  0.50000000  0.46846989  0.66664011  1
  C  C86  1  0.50000000  0.47211112  0.29116411  1
  C  C87  1  0.50000000  0.46855441  0.79163502  1
  C  C88  1  0.50000000  0.53213245  0.08297504  1
  C  C89  1  0.50000000  0.52979341  0.58323388  1
  C  C90  1  0.50000000  0.53118502  0.45845078  1
  C  C91  1  0.50000000  0.52988673  0.95803869  1
  C  C92  1  0.50000000  0.53346434  0.20817654  1
  C  C93  1  0.50000000  0.52976004  0.70818293  1
  C  C94  1  0.50000000  0.53317403  0.33326436  1
  C  C95  1  0.50000000  0.52970975  0.83319626  1
  C  C96  1  0.50000000  0.56313623  0.10364700  1
  C  C97  1  0.50000000  0.56058106  0.60437493  1
  C  C98  1  0.50000000  0.56153135  0.47987147  1
  C  C99  1  0.50000000  0.56099686  0.97855593  1
  C  C100  1  0.50000000  0.56427004  0.22907690  1
  C  C101  1  0.50000000  0.56051490  0.72915286  1
  C  C102  1  0.50000000  0.56369398  0.35454025  1
  C  C103  1  0.50000000  0.56056433  0.85398791  1
  C  C104  1  0.50000000  0.50014490  0.02083737  1
  C  C105  1  0.50000000  0.49922251  0.52062729  1
  C  C106  1  0.50000000  0.50195997  0.39547779  1
  C  C107  1  0.50000000  0.49877318  0.89601930  1
  C  C108  1  0.50000000  0.50243338  0.14601476  1
  C  C109  1  0.50000000  0.49902212  0.64567268  1
  C  C110  1  0.50000000  0.50291230  0.27064651  1
  C  C111  1  0.50000000  0.49911240  0.77077574  1
  C  C112  1  0.50000000  0.53116492  0.04146557  1
  C  C113  1  0.50000000  0.52991006  0.54186210  1
  C  C114  1  0.50000000  0.53213281  0.41696371  1
  C  C115  1  0.50000000  0.52976718  0.91666161  1
  C  C116  1  0.50000000  0.53320237  0.16670406  1
  C  C117  1  0.50000000  0.52972148  0.66667823  1
  C  C118  1  0.50000000  0.53341839  0.29179606  1
  C  C119  1  0.50000000  0.52974479  0.79168923  1
  C  C120  1  0.50000000  0.59340659  0.08237955  1
  C  C121  1  0.50000000  0.59143548  0.58397809  1
  C  C122  1  0.50000000  0.59255798  0.45958552  1
  C  C123  1  0.50000000  0.59150143  0.95740885  1
  C  C124  1  0.50000000  0.59484069  0.20803460  1
  C  C125  1  0.50000000  0.59117205  0.70840917  1
  C  C126  1  0.50000000  0.59449947  0.33394095  1
  C  C127  1  0.50000000  0.59119940  0.83313211  1
  C  C128  1  0.50000000  0.62359445  0.10367955  1
  C  C129  1  0.50000000  0.62223255  0.60485699  1
  C  C130  1  0.50000000  0.62190943  0.48144884  1
  C  C131  1  0.50000000  0.62230988  0.97816295  1
  C  C132  1  0.50000000  0.62469980  0.23000435  1
  C  C133  1  0.50000000  0.62185414  0.72930280  1
  C  C134  1  0.50000000  0.62411157  0.35624498  1
  C  C135  1  0.50000000  0.62201183  0.85385524  1
  C  C136  1  0.50000000  0.56150646  0.02004352  1
  C  C137  1  0.50000000  0.56103483  0.52135105  1
  C  C138  1  0.50000000  0.56313601  0.39629803  1
  C  C139  1  0.50000000  0.56054593  0.89552177  1
  C  C140  1  0.50000000  0.56371816  0.14541467  1
  C  C141  1  0.50000000  0.56059495  0.64591126  1
  C  C142  1  0.50000000  0.56420508  0.27090324  1
  C  C143  1  0.50000000  0.56050642  0.77071921  1
  C  C144  1  0.50000000  0.59253070  0.04034657  1
  C  C145  1  0.50000000  0.59155278  0.54250826  1
  C  C146  1  0.50000000  0.59341483  0.41755576  1
  C  C147  1  0.50000000  0.59138665  0.91593803  1
  C  C148  1  0.50000000  0.59454569  0.16599829  1
  C  C149  1  0.50000000  0.59123341  0.66675608  1
  C  C150  1  0.50000000  0.59474958  0.29189096  1
  C  C151  1  0.50000000  0.59115943  0.79147171  1
  C  C152  1  0.50000000  0.65332673  0.58417054  1
  C  C153  1  0.50000000  0.65372028  0.95706048  1
  C  C154  1  0.50000000  0.65280771  0.70851917  1
  C  C155  1  0.50000000  0.65292943  0.83286653  1
  C  C156  1  0.50000000  0.68410440  0.60487529  1
  C  C157  1  0.50000000  0.68446482  0.97641245  1
  C  C158  1  0.50000000  0.68343608  0.72912143  1
  C  C159  1  0.50000000  0.68367813  0.85316914  1
  C  C160  1  0.50000000  0.62187661  0.01848318  1
  C  C161  1  0.50000000  0.62237487  0.52176508  1
  C  C162  1  0.50000000  0.62356609  0.39620764  1
  C  C163  1  0.50000000  0.62217902  0.89504497  1
  C  C164  1  0.50000000  0.62416194  0.14365636  1
  C  C165  1  0.50000000  0.62205431  0.64604847  1
  C  C166  1  0.50000000  0.62463878  0.26999985  1
  C  C167  1  0.50000000  0.62184628  0.77059416  1
  C  C168  1  0.50000000  0.65379824  0.54286522  1
  C  C169  1  0.50000000  0.65326717  0.91575379  1
  C  C170  1  0.50000000  0.65296835  0.66706863  1
  C  C171  1  0.50000000  0.65277831  0.79141763  1
  C  C172  1  0.50000000  0.71425664  0.58411416  1
  C  C173  1  0.50000000  0.71439228  0.95608000  1
  C  C174  1  0.50000000  0.71353283  0.70797584  1
  C  C175  1  0.50000000  0.71365227  0.83179561  1
  C  C176  1  0.50000000  0.68456337  0.52351818  1
  C  C177  1  0.50000000  0.68405280  0.89507591  1
  C  C178  1  0.50000000  0.68372028  0.64678358  1
  C  C179  1  0.50000000  0.68342793  0.77084950  1
  C  C180  1  0.50000000  0.71448932  0.54390649  1
  C  C181  1  0.50000000  0.71419859  0.91588084  1
  C  C182  1  0.50000000  0.71366242  0.66818439  1
  C  C183  1  0.50000000  0.71353837  0.79199520  1
  H  H184  1  0.50000000  0.25989235  0.60044546  1
  H  H185  1  0.50000000  0.25985197  0.97078518  1
  H  H186  1  0.50000000  0.26101798  0.72389998  1
  H  H187  1  0.50000000  0.26058991  0.84584254  1
  H  H188  1  0.50000000  0.25989208  0.52909058  1
  H  H189  1  0.50000000  0.25982401  0.89972537  1
  H  H190  1  0.50000000  0.26063544  0.65404323  1
  H  H191  1  0.50000000  0.26106184  0.77577880  1
  H  H192  1  0.50000000  0.73800714  0.59948592  1
  H  H193  1  0.50000000  0.73806779  0.97181462  1
  H  H194  1  0.50000000  0.73743983  0.72301424  1
  H  H195  1  0.50000000  0.73764074  0.84673324  1
  H  H196  1  0.50000000  0.73819468  0.52822557  1
  H  H197  1  0.50000000  0.73802739  0.90069504  1
  H  H198  1  0.50000000  0.73772423  0.65348712  1
  H  H199  1  0.50000000  0.73740461  0.77684819  1
  H  H200  1  0.50000000  0.31417242  0.00674212  1
  H  H201  1  0.50000000  0.36942921  0.00424410  1
  H  H202  1  0.50000000  0.31405475  0.49331988  1
  H  H203  1  0.50000000  0.38746433  0.10148406  1
  H  H204  1  0.50000000  0.38522265  0.46346657  1
  H  H205  1  0.50000000  0.38738878  0.22338337  1
  H  H206  1  0.50000000  0.38724027  0.34624577  1
  H  H207  1  0.50000000  0.36924402  0.49561248  1
  H  H208  1  0.50000000  0.38511524  0.03666877  1
  H  H209  1  0.50000000  0.38739075  0.39862596  1
  H  H210  1  0.50000000  0.38725679  0.15370630  1
  H  H211  1  0.50000000  0.38728830  0.27680205  1
  H  H212  1  0.50000000  0.64741809  0.08837024  1
  H  H213  1  0.50000000  0.64552559  0.46605269  1
  H  H214  1  0.50000000  0.64873707  0.21520466  1
  H  H215  1  0.50000000  0.64829622  0.34180493  1
  H  H216  1  0.50000000  0.68554472  0.00800814  1
  H  H217  1  0.50000000  0.64548785  0.03390373  1
  H  H218  1  0.50000000  0.64745045  0.41133737  1
  H  H219  1  0.50000000  0.64833333  0.15816075  1
  H  H220  1  0.50000000  0.64860296  0.28496449  1
  H  H221  1  0.50000000  0.68564895  0.49189742  1
