# generated using pymatgen
data_H19C96
_symmetry_space_group_name_H-M   'P 1'
_cell_length_a   20.00000000
_cell_length_b   40.19450000
_cell_length_c   34.64156114
_cell_angle_alpha   90.00000000
_cell_angle_beta   90.00000000
_cell_angle_gamma   90.00000000
_symmetry_Int_Tables_number   1
_chemical_formula_structural   H19C96
_chemical_formula_sum   'H38 C192'
_cell_volume   27848.00458547
_cell_formula_units_Z   2
loop_
 _symmetry_equiv_pos_site_id
 _symmetry_equiv_pos_as_xyz
  1  'x, y, z'
loop_
 _atom_site_type_symbol
 _atom_site_label
 _atom_site_symmetry_multiplicity
 _atom_site_fract_x
 _atom_site_fract_y
 _atom_site_fract_z
 _atom_site_occupancy
  C  C0  1  0.50000000  0.28414212  0.58867404  1
  C  C1  1  0.50000000  0.28253141  0.95085573  1
  C  C2  1  0.50000000  0.28671747  0.70886958  1
  C  C3  1  0.50000000  0.28645184  0.83053059  1
  C  C4  1  0.50000000  0.31540644  0.60663304  1
  C  C5  1  0.50000000  0.31165849  0.97227213  1
  C  C6  1  0.50000000  0.31701998  0.72933200  1
  C  C7  1  0.50000000  0.31637359  0.85188385  1
  C  C8  1  0.50000000  0.28246541  0.54911591  1
  C  C9  1  0.50000000  0.28418573  0.91129381  1
  C  C10  1  0.50000000  0.28643175  0.66943345  1
  C  C11  1  0.50000000  0.28673248  0.79109346  1
  C  C12  1  0.50000000  0.34806106  0.08470227  1
  C  C13  1  0.50000000  0.34565542  0.58470358  1
  C  C14  1  0.50000000  0.34786227  0.45458377  1
  C  C15  1  0.50000000  0.34427057  0.95677218  1
  C  C16  1  0.50000000  0.34718822  0.20767457  1
  C  C17  1  0.50000000  0.34748678  0.70878098  1
  C  C18  1  0.50000000  0.34730865  0.33189217  1
  C  C19  1  0.50000000  0.34720024  0.83234201  1
  C  C20  1  0.50000000  0.37788951  0.10544258  1
  C  C21  1  0.50000000  0.37702396  0.60471756  1
  C  C22  1  0.50000000  0.37648712  0.47869723  1
  C  C23  1  0.50000000  0.37549096  0.97925664  1
  C  C24  1  0.50000000  0.37718686  0.22913629  1
  C  C25  1  0.50000000  0.37831016  0.72934769  1
  C  C26  1  0.50000000  0.37747452  0.35310815  1
  C  C27  1  0.50000000  0.37771343  0.85382637  1
  C  C28  1  0.50000000  0.31157051  0.52765797  1
  C  C29  1  0.50000000  0.31544569  0.89331148  1
  C  C30  1  0.50000000  0.31634478  0.64805332  1
  C  C31  1  0.50000000  0.31702308  0.77060924  1
  C  C32  1  0.50000000  0.34790502  0.04534820  1
  C  C33  1  0.50000000  0.34419803  0.54312971  1
  C  C34  1  0.50000000  0.34800531  0.41522199  1
  C  C35  1  0.50000000  0.34571646  0.91520785  1
  C  C36  1  0.50000000  0.34733941  0.16799958  1
  C  C37  1  0.50000000  0.34717451  0.66757467  1
  C  C38  1  0.50000000  0.34716343  0.29222021  1
  C  C39  1  0.50000000  0.34749639  0.79112467  1
  C  C40  1  0.50000000  0.40787257  0.08355376  1
  C  C41  1  0.50000000  0.40743971  0.58315829  1
  C  C42  1  0.50000000  0.40748660  0.45810304  1
  C  C43  1  0.50000000  0.40664251  0.95863738  1
  C  C44  1  0.50000000  0.40783600  0.20855393  1
  C  C45  1  0.50000000  0.40873115  0.70824018  1
  C  C46  1  0.50000000  0.40795624  0.33271158  1
  C  C47  1  0.50000000  0.40848063  0.83332371  1
  C  C48  1  0.50000000  0.43851946  0.10436916  1
  C  C49  1  0.50000000  0.43844345  0.60374444  1
  C  C50  1  0.50000000  0.43821734  0.47904160  1
  C  C51  1  0.50000000  0.43795667  0.97935499  1
  C  C52  1  0.50000000  0.43851267  0.22933353  1
  C  C53  1  0.50000000  0.43922126  0.72911690  1
  C  C54  1  0.50000000  0.43845617  0.35405572  1
  C  C55  1  0.50000000  0.43887645  0.85449751  1
  C  C56  1  0.50000000  0.37652707  0.02121891  1
  C  C57  1  0.50000000  0.37543146  0.52065400  1
  C  C58  1  0.50000000  0.37783497  0.39446745  1
  C  C59  1  0.50000000  0.37707215  0.89517996  1
  C  C60  1  0.50000000  0.37751144  0.14680063  1
  C  C61  1  0.50000000  0.37767494  0.64607465  1
  C  C62  1  0.50000000  0.37716467  0.27074557  1
  C  C63  1  0.50000000  0.37831183  0.77053632  1
  C  C64  1  0.50000000  0.40753514  0.04180570  1
  C  C65  1  0.50000000  0.40658909  0.54126080  1
  C  C66  1  0.50000000  0.40782357  0.41635032  1
  C  C67  1  0.50000000  0.40748361  0.91673960  1
  C  C68  1  0.50000000  0.40799045  0.16719188  1
  C  C69  1  0.50000000  0.40845517  0.66654417  1
  C  C70  1  0.50000000  0.40780919  0.29134553  1
  C  C71  1  0.50000000  0.40872104  0.79161050  1
  C  C72  1  0.50000000  0.46895230  0.08333892  1
  C  C73  1  0.50000000  0.46930781  0.58284201  1
  C  C74  1  0.50000000  0.46896734  0.45812597  1
  C  C75  1  0.50000000  0.46911752  0.95856978  1
  C  C76  1  0.50000000  0.46893962  0.20834395  1
  C  C77  1  0.50000000  0.46981039  0.70796150  1
  C  C78  1  0.50000000  0.46891006  0.33311533  1
  C  C79  1  0.50000000  0.46969738  0.83352015  1
  C  C80  1  0.50000000  0.49933507  0.10445281  1
  C  C81  1  0.50000000  0.50029777  0.60364530  1
  C  C82  1  0.50000000  0.49974248  0.47893072  1
  C  C83  1  0.50000000  0.50012633  0.97943172  1
  C  C84  1  0.50000000  0.49936879  0.22934242  1
  C  C85  1  0.50000000  0.50031276  0.72907041  1
  C  C86  1  0.50000000  0.49935987  0.35399226  1
  C  C87  1  0.50000000  0.50032464  0.85439815  1
  C  C88  1  0.50000000  0.43826483  0.02085715  1
  C  C89  1  0.50000000  0.43790403  0.52054377  1
  C  C90  1  0.50000000  0.43847693  0.39552966  1
  C  C91  1  0.50000000  0.43849021  0.89615382  1
  C  C92  1  0.50000000  0.43848821  0.14584797  1
  C  C93  1  0.50000000  0.43883549  0.64540568  1
  C  C94  1  0.50000000  0.43849960  0.27058348  1
  C  C95  1  0.50000000  0.43921051  0.77074888  1
  C  C96  1  0.50000000  0.46900788  0.04178312  1
  C  C97  1  0.50000000  0.46906266  0.54133020  1
  C  C98  1  0.50000000  0.46890883  0.41656337  1
  C  C99  1  0.50000000  0.46936227  0.91705963  1
  C  C100  1  0.50000000  0.46893388  0.16679936  1
  C  C101  1  0.50000000  0.46967830  0.66635574  1
  C  C102  1  0.50000000  0.46892696  0.29157335  1
  C  C103  1  0.50000000  0.46979955  0.79191011  1
  C  C104  1  0.50000000  0.53000004  0.08373230  1
  C  C105  1  0.50000000  0.53109404  0.58304385  1
  C  C106  1  0.50000000  0.53043782  0.45789354  1
  C  C107  1  0.50000000  0.53148082  0.95877591  1
  C  C108  1  0.50000000  0.53007732  0.20866016  1
  C  C109  1  0.50000000  0.53082456  0.70824149  1
  C  C110  1  0.50000000  0.52984331  0.33256567  1
  C  C111  1  0.50000000  0.53084809  0.83320917  1
  C  C112  1  0.50000000  0.55988525  0.10578036  1
  C  C113  1  0.50000000  0.56179480  0.60463199  1
  C  C114  1  0.50000000  0.56152714  0.47839007  1
  C  C115  1  0.50000000  0.56240636  0.97960204  1
  C  C116  1  0.50000000  0.56077240  0.22921554  1
  C  C117  1  0.50000000  0.56152328  0.72925617  1
  C  C118  1  0.50000000  0.56032813  0.35287204  1
  C  C119  1  0.50000000  0.56169369  0.85382271  1
  C  C120  1  0.50000000  0.49978975  0.02096769  1
  C  C121  1  0.50000000  0.50006695  0.52045823  1
  C  C122  1  0.50000000  0.49929708  0.39545377  1
  C  C123  1  0.50000000  0.50034022  0.89624373  1
  C  C124  1  0.50000000  0.49938615  0.14591958  1
  C  C125  1  0.50000000  0.50031528  0.64545871  1
  C  C126  1  0.50000000  0.49936150  0.27057762  1
  C  C127  1  0.50000000  0.50030739  0.77080869  1
  C  C128  1  0.50000000  0.53047995  0.04200533  1
  C  C129  1  0.50000000  0.53141602  0.54113220  1
  C  C130  1  0.50000000  0.52996224  0.41616541  1
  C  C131  1  0.50000000  0.53115413  0.91687666  1
  C  C132  1  0.50000000  0.52986657  0.16734695  1
  C  C133  1  0.50000000  0.53083147  0.66667302  1
  C  C134  1  0.50000000  0.53006806  0.29125540  1
  C  C135  1  0.50000000  0.53082763  0.79163833  1
  C  C136  1  0.50000000  0.58973480  0.08525882  1
  C  C137  1  0.50000000  0.59269514  0.58460999  1
  C  C138  1  0.50000000  0.59004556  0.45393156  1
  C  C139  1  0.50000000  0.59341605  0.95710124  1
  C  C140  1  0.50000000  0.59079473  0.20779553  1
  C  C141  1  0.50000000  0.59215473  0.70866603  1
  C  C142  1  0.50000000  0.59058194  0.33175957  1
  C  C143  1  0.50000000  0.59227872  0.83270792  1
  C  C144  1  0.50000000  0.62332999  0.60598465  1
  C  C145  1  0.50000000  0.62511724  0.97323643  1
  C  C146  1  0.50000000  0.62280469  0.72939011  1
  C  C147  1  0.50000000  0.62307209  0.85278167  1
  C  C148  1  0.50000000  0.56156835  0.02151043  1
  C  C149  1  0.50000000  0.56233848  0.52030406  1
  C  C150  1  0.50000000  0.55985004  0.39412669  1
  C  C151  1  0.50000000  0.56184813  0.89527236  1
  C  C152  1  0.50000000  0.56035147  0.14703664  1
  C  C153  1  0.50000000  0.56166968  0.64606776  1
  C  C154  1  0.50000000  0.56076836  0.27069474  1
  C  C155  1  0.50000000  0.56152708  0.77062489  1
  C  C156  1  0.50000000  0.59008347  0.04596768  1
  C  C157  1  0.50000000  0.59334099  0.54281120  1
  C  C158  1  0.50000000  0.58969837  0.41464501  1
  C  C159  1  0.50000000  0.59275945  0.91529470  1
  C  C160  1  0.50000000  0.59060001  0.16815076  1
  C  C161  1  0.50000000  0.59225401  0.66718474  1
  C  C162  1  0.50000000  0.59078881  0.29212324  1
  C  C163  1  0.50000000  0.59216254  0.79122595  1
  C  C164  1  0.50000000  0.65490809  0.58698113  1
  C  C165  1  0.50000000  0.65543408  0.95356511  1
  C  C166  1  0.50000000  0.65380544  0.70891182  1
  C  C167  1  0.50000000  0.65408634  0.83210447  1
  C  C168  1  0.50000000  0.68581571  0.60666616  1
  C  C169  1  0.50000000  0.68564302  0.97454451  1
  C  C170  1  0.50000000  0.68446354  0.72927283  1
  C  C171  1  0.50000000  0.68517326  0.85175713  1
  C  C172  1  0.50000000  0.62502757  0.52667339  1
  C  C173  1  0.50000000  0.62338809  0.89390341  1
  C  C174  1  0.50000000  0.62303613  0.64710369  1
  C  C175  1  0.50000000  0.62281241  0.77050675  1
  C  C176  1  0.50000000  0.65534847  0.54631525  1
  C  C177  1  0.50000000  0.65497308  0.91289933  1
  C  C178  1  0.50000000  0.65405519  0.66777603  1
  C  C179  1  0.50000000  0.65381836  0.79097515  1
  C  C180  1  0.50000000  0.71561306  0.58525917  1
  C  C181  1  0.50000000  0.71567973  0.95491888  1
  C  C182  1  0.50000000  0.71474716  0.70873868  1
  C  C183  1  0.50000000  0.71506101  0.83066113  1
  C  C184  1  0.50000000  0.68552752  0.52528928  1
  C  C185  1  0.50000000  0.68587244  0.89319639  1
  C  C186  1  0.50000000  0.68513429  0.64810862  1
  C  C187  1  0.50000000  0.68446896  0.77061171  1
  C  C188  1  0.50000000  0.71557165  0.54489863  1
  C  C189  1  0.50000000  0.71569100  0.91456144  1
  C  C190  1  0.50000000  0.71502214  0.66920092  1
  C  C191  1  0.50000000  0.71476197  0.79112448  1
  H  H192  1  0.50000000  0.26123751  0.60543583  1
  H  H193  1  0.50000000  0.25854377  0.96588091  1
  H  H194  1  0.50000000  0.26292750  0.72399196  1
  H  H195  1  0.50000000  0.26230717  0.84484341  1
  H  H196  1  0.50000000  0.25846592  0.53412164  1
  H  H197  1  0.50000000  0.26127548  0.89453614  1
  H  H198  1  0.50000000  0.26227750  0.65514945  1
  H  H199  1  0.50000000  0.26296220  0.77594902  1
  H  H200  1  0.50000000  0.73959822  0.60006711  1
  H  H201  1  0.50000000  0.73929058  0.97068333  1
  H  H202  1  0.50000000  0.73853732  0.72388103  1
  H  H203  1  0.50000000  0.73894630  0.84564077  1
  H  H204  1  0.50000000  0.73918399  0.52914358  1
  H  H205  1  0.50000000  0.73964785  0.89969203  1
  H  H206  1  0.50000000  0.73890680  0.65422378  1
  H  H207  1  0.50000000  0.73852470  0.77592885  1
  H  H208  1  0.50000000  0.30624856  0.00246697  1
  H  H209  1  0.50000000  0.32400411  0.09933138  1
  H  H210  1  0.50000000  0.32321439  0.46582382  1
  H  H211  1  0.50000000  0.32325483  0.22262573  1
  H  H212  1  0.50000000  0.32340738  0.34684347  1
  H  H213  1  0.50000000  0.30608258  0.49747251  1
  H  H214  1  0.50000000  0.32322930  0.03417555  1
  H  H215  1  0.50000000  0.32394667  0.40059327  1
  H  H216  1  0.50000000  0.32345102  0.15301635  1
  H  H217  1  0.50000000  0.32323509  0.27725995  1
  H  H218  1  0.50000000  0.61376403  0.09993915  1
  H  H219  1  0.50000000  0.61507815  0.46397367  1
  H  H220  1  0.50000000  0.61476185  0.22267830  1
  H  H221  1  0.50000000  0.61444465  0.34682564  1
  H  H222  1  0.50000000  0.62972539  0.00344955  1
  H  H223  1  0.50000000  0.61510065  0.03588685  1
  H  H224  1  0.50000000  0.61371719  0.39993360  1
  H  H225  1  0.50000000  0.61445250  0.15306977  1
  H  H226  1  0.50000000  0.61476707  0.27725343  1
  H  H227  1  0.50000000  0.68483612  0.00619107  1
  H  H228  1  0.50000000  0.62960997  0.49645989  1
  H  H229  1  0.50000000  0.68465289  0.49363833  1
