# generated using pymatgen
data_H3C16
_symmetry_space_group_name_H-M   'P 1'
_cell_length_a   20.00000000
_cell_length_b   40.19450000
_cell_length_c   34.37591698
_cell_angle_alpha   90.00000000
_cell_angle_beta   90.00000000
_cell_angle_gamma   90.00000000
_symmetry_Int_Tables_number   1
_chemical_formula_structural   H3C16
_chemical_formula_sum   'H36 C192'
_cell_volume   27634.45589936
_cell_formula_units_Z   12
loop_
 _symmetry_equiv_pos_site_id
 _symmetry_equiv_pos_as_xyz
  1  'x, y, z'
loop_
 _atom_site_type_symbol
 _atom_site_label
 _atom_site_symmetry_multiplicity
 _atom_site_fract_x
 _atom_site_fract_y
 _atom_site_fract_z
 _atom_site_occupancy
  C  C0  1  0.50000000  0.28531848  0.58200503  1
  C  C1  1  0.50000000  0.28546725  0.95785522  1
  C  C2  1  0.50000000  0.28553051  0.70731990  1
  C  C3  1  0.50000000  0.28551241  0.83256616  1
  C  C4  1  0.50000000  0.31623088  0.10493566  1
  C  C5  1  0.50000000  0.31547543  0.60391321  1
  C  C6  1  0.50000000  0.31636533  0.48012166  1
  C  C7  1  0.50000000  0.31596203  0.97895900  1
  C  C8  1  0.50000000  0.31639941  0.22992822  1
  C  C9  1  0.50000000  0.31556904  0.72898314  1
  C  C10  1  0.50000000  0.31631264  0.35490330  1
  C  C11  1  0.50000000  0.31554128  0.85418125  1
  C  C12  1  0.50000000  0.28543811  0.54209817  1
  C  C13  1  0.50000000  0.28532176  0.91794943  1
  C  C14  1  0.50000000  0.28551985  0.66735520  1
  C  C15  1  0.50000000  0.28552451  0.79258735  1
  C  C16  1  0.50000000  0.34609222  0.08333808  1
  C  C17  1  0.50000000  0.34631749  0.58358447  1
  C  C18  1  0.50000000  0.34594829  0.45886317  1
  C  C19  1  0.50000000  0.34661737  0.95792434  1
  C  C20  1  0.50000000  0.34632778  0.20847164  1
  C  C21  1  0.50000000  0.34625948  0.70830644  1
  C  C22  1  0.50000000  0.34626956  0.33354709  1
  C  C23  1  0.50000000  0.34626235  0.83333948  1
  C  C24  1  0.50000000  0.37677411  0.10392835  1
  C  C25  1  0.50000000  0.37716187  0.60447465  1
  C  C26  1  0.50000000  0.37691685  0.47948016  1
  C  C27  1  0.50000000  0.37714092  0.97892502  1
  C  C28  1  0.50000000  0.37698046  0.22913677  1
  C  C29  1  0.50000000  0.37716129  0.72923210  1
  C  C30  1  0.50000000  0.37687400  0.35432498  1
  C  C31  1  0.50000000  0.37717485  0.85406359  1
  C  C32  1  0.50000000  0.31638099  0.01980230  1
  C  C33  1  0.50000000  0.31592562  0.52096858  1
  C  C34  1  0.50000000  0.31625524  0.39502373  1
  C  C35  1  0.50000000  0.31547535  0.89601832  1
  C  C36  1  0.50000000  0.31629839  0.14506118  1
  C  C37  1  0.50000000  0.31554586  0.64574355  1
  C  C38  1  0.50000000  0.31640006  0.27003541  1
  C  C39  1  0.50000000  0.31556631  0.77092904  1
  C  C40  1  0.50000000  0.34595358  0.04107339  1
  C  C41  1  0.50000000  0.34658595  0.54199589  1
  C  C42  1  0.50000000  0.34610850  0.41660388  1
  C  C43  1  0.50000000  0.34633484  0.91633751  1
  C  C44  1  0.50000000  0.34625948  0.16640973  1
  C  C45  1  0.50000000  0.34626418  0.66658722  1
  C  C46  1  0.50000000  0.34633283  0.29148752  1
  C  C47  1  0.50000000  0.34625125  0.79161662  1
  C  C48  1  0.50000000  0.40772916  0.08301458  1
  C  C49  1  0.50000000  0.40788641  0.58357755  1
  C  C50  1  0.50000000  0.40764994  0.45853817  1
  C  C51  1  0.50000000  0.40794831  0.95796865  1
  C  C52  1  0.50000000  0.40783550  0.20815896  1
  C  C53  1  0.50000000  0.40794633  0.70841950  1
  C  C54  1  0.50000000  0.40777738  0.33339057  1
  C  C55  1  0.50000000  0.40797319  0.83320481  1
  C  C56  1  0.50000000  0.43830967  0.10379718  1
  C  C57  1  0.50000000  0.43858934  0.60437025  1
  C  C58  1  0.50000000  0.43828690  0.47937525  1
  C  C59  1  0.50000000  0.43846444  0.97876942  1
  C  C60  1  0.50000000  0.43843776  0.22899029  1
  C  C61  1  0.50000000  0.43866204  0.72914883  1
  C  C62  1  0.50000000  0.43836987  0.35418537  1
  C  C63  1  0.50000000  0.43863293  0.85392613  1
  C  C64  1  0.50000000  0.37693363  0.02045729  1
  C  C65  1  0.50000000  0.37711178  0.52100639  1
  C  C66  1  0.50000000  0.37678129  0.39602022  1
  C  C67  1  0.50000000  0.37718530  0.89545279  1
  C  C68  1  0.50000000  0.37686309  0.14562472  1
  C  C69  1  0.50000000  0.37716473  0.64586333  1
  C  C70  1  0.50000000  0.37698358  0.27081968  1
  C  C71  1  0.50000000  0.37716059  0.77070354  1
  C  C72  1  0.50000000  0.40767657  0.04139232  1
  C  C73  1  0.50000000  0.40791388  0.54196271  1
  C  C74  1  0.50000000  0.40772120  0.41692402  1
  C  C75  1  0.50000000  0.40791760  0.91635185  1
  C  C76  1  0.50000000  0.40776621  0.16656369  1
  C  C77  1  0.50000000  0.40795732  0.66673441  1
  C  C78  1  0.50000000  0.40784055  0.29179657  1
  C  C79  1  0.50000000  0.40795037  0.79151943  1
  C  C80  1  0.50000000  0.46897647  0.08297563  1
  C  C81  1  0.50000000  0.46926172  0.58349846  1
  C  C82  1  0.50000000  0.46888893  0.45851624  1
  C  C83  1  0.50000000  0.46917495  0.95789569  1
  C  C84  1  0.50000000  0.46904967  0.20815573  1
  C  C85  1  0.50000000  0.46947865  0.70831738  1
  C  C86  1  0.50000000  0.46899813  0.33337583  1
  C  C87  1  0.50000000  0.46948435  0.83311377  1
  C  C88  1  0.50000000  0.49988834  0.10390398  1
  C  C89  1  0.50000000  0.50016551  0.60433507  1
  C  C90  1  0.50000000  0.49962253  0.47952402  1
  C  C91  1  0.50000000  0.49990238  0.97883457  1
  C  C92  1  0.50000000  0.49992950  0.22913166  1
  C  C93  1  0.50000000  0.50028507  0.72911055  1
  C  C94  1  0.50000000  0.49988726  0.35433742  1
  C  C95  1  0.50000000  0.50024462  0.85391149  1
  C  C96  1  0.50000000  0.43832452  0.02055465  1
  C  C97  1  0.50000000  0.43842241  0.52115923  1
  C  C98  1  0.50000000  0.43829991  0.39615213  1
  C  C99  1  0.50000000  0.43862786  0.89556860  1
  C  C100  1  0.50000000  0.43836822  0.14576936  1
  C  C101  1  0.50000000  0.43860917  0.64601020  1
  C  C102  1  0.50000000  0.43843574  0.27095827  1
  C  C103  1  0.50000000  0.43866512  0.77078192  1
  C  C104  1  0.50000000  0.46893098  0.04142696  1
  C  C105  1  0.50000000  0.46911698  0.54204540  1
  C  C106  1  0.50000000  0.46895374  0.41697548  1
  C  C107  1  0.50000000  0.46931009  0.91644005  1
  C  C108  1  0.50000000  0.46899753  0.16658068  1
  C  C109  1  0.50000000  0.46946048  0.66681718  1
  C  C110  1  0.50000000  0.46904621  0.29178965  1
  C  C111  1  0.50000000  0.46948959  0.79161057  1
  C  C112  1  0.50000000  0.53052839  0.08318739  1
  C  C113  1  0.50000000  0.53068523  0.58363177  1
  C  C114  1  0.50000000  0.53033013  0.45896576  1
  C  C115  1  0.50000000  0.53056684  0.95796130  1
  C  C116  1  0.50000000  0.53057860  0.20844416  1
  C  C117  1  0.50000000  0.53095997  0.70836071  1
  C  C118  1  0.50000000  0.53053057  0.33364969  1
  C  C119  1  0.50000000  0.53097711  0.83319940  1
  C  C120  1  0.50000000  0.56049241  0.10472809  1
  C  C121  1  0.50000000  0.56169205  0.60437072  1
  C  C122  1  0.50000000  0.56000061  0.48034250  1
  C  C123  1  0.50000000  0.56109986  0.97911295  1
  C  C124  1  0.50000000  0.56057079  0.22993355  1
  C  C125  1  0.50000000  0.56181779  0.72918745  1
  C  C126  1  0.50000000  0.56048669  0.35518125  1
  C  C127  1  0.50000000  0.56178628  0.85406614  1
  C  C128  1  0.50000000  0.49968409  0.02042903  1
  C  C129  1  0.50000000  0.49983399  0.52111021  1
  C  C130  1  0.50000000  0.49986090  0.39605153  1
  C  C131  1  0.50000000  0.50021872  0.89560124  1
  C  C132  1  0.50000000  0.49989274  0.14562637  1
  C  C133  1  0.50000000  0.50021238  0.64601805  1
  C  C134  1  0.50000000  0.49992951  0.27082778  1
  C  C135  1  0.50000000  0.50029613  0.77081883  1
  C  C136  1  0.50000000  0.53039660  0.04099933  1
  C  C137  1  0.50000000  0.53048512  0.54197539  1
  C  C138  1  0.50000000  0.53048419  0.41678331  1
  C  C139  1  0.50000000  0.53074985  0.91629960  1
  C  C140  1  0.50000000  0.53052876  0.16632443  1
  C  C141  1  0.50000000  0.53094699  0.66672419  1
  C  C142  1  0.50000000  0.53057231  0.29152220  1
  C  C143  1  0.50000000  0.53097972  0.79156212  1
  C  C144  1  0.50000000  0.59244731  0.58360511  1
  C  C145  1  0.50000000  0.59272313  0.95816849  1
  C  C146  1  0.50000000  0.59257575  0.70842196  1
  C  C147  1  0.50000000  0.59264769  0.83326779  1
  C  C148  1  0.50000000  0.62318253  0.60425634  1
  C  C149  1  0.50000000  0.62295115  0.97760202  1
  C  C150  1  0.50000000  0.62323892  0.72912590  1
  C  C151  1  0.50000000  0.62322555  0.85394189  1
  C  C152  1  0.50000000  0.56007523  0.01960496  1
  C  C153  1  0.50000000  0.56100030  0.52081552  1
  C  C154  1  0.50000000  0.56045584  0.39526991  1
  C  C155  1  0.50000000  0.56175752  0.89554831  1
  C  C156  1  0.50000000  0.56048842  0.14482565  1
  C  C157  1  0.50000000  0.56174562  0.64584264  1
  C  C158  1  0.50000000  0.56056873  0.27004320  1
  C  C159  1  0.50000000  0.56183012  0.77072538  1
  C  C160  1  0.50000000  0.59262218  0.54173358  1
  C  C161  1  0.50000000  0.59252443  0.91629455  1
  C  C162  1  0.50000000  0.59261646  0.66662180  1
  C  C163  1  0.50000000  0.59259672  0.79147052  1
  C  C164  1  0.50000000  0.65399960  0.58349905  1
  C  C165  1  0.50000000  0.65382028  0.95797319  1
  C  C166  1  0.50000000  0.65413887  0.70819393  1
  C  C167  1  0.50000000  0.65425290  0.83330994  1
  C  C168  1  0.50000000  0.68508687  0.60350578  1
  C  C169  1  0.50000000  0.68414548  0.97886850  1
  C  C170  1  0.50000000  0.68483199  0.72887563  1
  C  C171  1  0.50000000  0.68502994  0.85398820  1
  C  C172  1  0.50000000  0.62281435  0.52225868  1
  C  C173  1  0.50000000  0.62325595  0.89560029  1
  C  C174  1  0.50000000  0.62317689  0.64591249  1
  C  C175  1  0.50000000  0.62325053  0.77074588  1
  C  C176  1  0.50000000  0.65368250  0.54186140  1
  C  C177  1  0.50000000  0.65409596  0.91632789  1
  C  C178  1  0.50000000  0.65421206  0.66652067  1
  C  C179  1  0.50000000  0.65416553  0.79164220  1
  C  C180  1  0.50000000  0.71458854  0.58148266  1
  C  C181  1  0.50000000  0.71421755  0.95903209  1
  C  C182  1  0.50000000  0.71473808  0.70746195  1
  C  C183  1  0.50000000  0.71484581  0.83247091  1
  C  C184  1  0.50000000  0.68396706  0.52092532  1
  C  C185  1  0.50000000  0.68516567  0.89628496  1
  C  C186  1  0.50000000  0.68497487  0.64580600  1
  C  C187  1  0.50000000  0.68485105  0.77093865  1
  C  C188  1  0.50000000  0.71405176  0.54072067  1
  C  C189  1  0.50000000  0.71469059  0.91827162  1
  C  C190  1  0.50000000  0.71479428  0.66731055  1
  C  C191  1  0.50000000  0.71477288  0.79231854  1
  H  H192  1  0.50000000  0.26135149  0.59700148  1
  H  H193  1  0.50000000  0.26193902  0.97402207  1
  H  H194  1  0.50000000  0.26154925  0.72228115  1
  H  H195  1  0.50000000  0.26154732  0.84756876  1
  H  H196  1  0.50000000  0.26188617  0.52599156  1
  H  H197  1  0.50000000  0.26133192  0.90299402  1
  H  H198  1  0.50000000  0.26155950  0.65234100  1
  H  H199  1  0.50000000  0.26155771  0.77759934  1
  H  H200  1  0.50000000  0.73876073  0.59603256  1
  H  H201  1  0.50000000  0.73779535  0.97507724  1
  H  H202  1  0.50000000  0.73871053  0.72241243  1
  H  H203  1  0.50000000  0.73880160  0.84750251  1
  H  H204  1  0.50000000  0.73756221  0.52456079  1
  H  H205  1  0.50000000  0.73885658  0.90371477  1
  H  H206  1  0.50000000  0.73875430  0.65228366  1
  H  H207  1  0.50000000  0.73873164  0.77732800  1
  H  H208  1  0.50000000  0.29220812  0.09006245  1
  H  H209  1  0.50000000  0.29230007  0.46530068  1
  H  H210  1  0.50000000  0.29248051  0.21483073  1
  H  H211  1  0.50000000  0.29240749  0.33978044  1
  H  H212  1  0.50000000  0.29230257  0.03459840  1
  H  H213  1  0.50000000  0.29225579  0.40994679  1
  H  H214  1  0.50000000  0.29240043  0.16020151  1
  H  H215  1  0.50000000  0.29248313  0.28513774  1
  H  H216  1  0.50000000  0.58454528  0.08991248  1
  H  H217  1  0.50000000  0.58341391  0.46446262  1
  H  H218  1  0.50000000  0.58452580  0.21487483  1
  H  H219  1  0.50000000  0.58443449  0.34010620  1
  H  H220  1  0.50000000  0.62392190  0.00938763  1
  H  H221  1  0.50000000  0.58349160  0.03547756  1
  H  H222  1  0.50000000  0.58449570  0.41014204  1
  H  H223  1  0.50000000  0.58441768  0.15992062  1
  H  H224  1  0.50000000  0.58451714  0.28511824  1
  H  H225  1  0.50000000  0.68340591  0.01076812  1
  H  H226  1  0.50000000  0.62378763  0.49046892  1
  H  H227  1  0.50000000  0.68321299  0.48903022  1
