# generated using pymatgen
data_H19C96
_symmetry_space_group_name_H-M   'P 1'
_cell_length_a   20.00000000
_cell_length_b   40.19450000
_cell_length_c   34.55691719
_cell_angle_alpha   90.00000000
_cell_angle_beta   90.00000000
_cell_angle_gamma   90.00000000
_symmetry_Int_Tables_number   1
_chemical_formula_structural   H19C96
_chemical_formula_sum   'H38 C192'
_cell_volume   27779.96016253
_cell_formula_units_Z   2
loop_
 _symmetry_equiv_pos_site_id
 _symmetry_equiv_pos_as_xyz
  1  'x, y, z'
loop_
 _atom_site_type_symbol
 _atom_site_label
 _atom_site_symmetry_multiplicity
 _atom_site_fract_x
 _atom_site_fract_y
 _atom_site_fract_z
 _atom_site_occupancy
  C  C0  1  0.50000000  0.28477449  0.08113197  1
  C  C1  1  0.50000000  0.28635937  0.58326001  1
  C  C2  1  0.50000000  0.28523098  0.45860793  1
  C  C3  1  0.50000000  0.28620783  0.95644918  1
  C  C4  1  0.50000000  0.28368926  0.20675696  1
  C  C5  1  0.50000000  0.28679195  0.70766780  1
  C  C6  1  0.50000000  0.28392326  0.33296632  1
  C  C7  1  0.50000000  0.28678212  0.83215328  1
  C  C8  1  0.50000000  0.31441147  0.10317827  1
  C  C9  1  0.50000000  0.31646968  0.60443805  1
  C  C10  1  0.50000000  0.31539210  0.47976644  1
  C  C11  1  0.50000000  0.31601354  0.97815955  1
  C  C12  1  0.50000000  0.31341059  0.22877543  1
  C  C13  1  0.50000000  0.31679355  0.72906074  1
  C  C14  1  0.50000000  0.31388671  0.35452702  1
  C  C15  1  0.50000000  0.31671021  0.85365614  1
  C  C16  1  0.50000000  0.28531421  0.04120816  1
  C  C17  1  0.50000000  0.28609656  0.54340097  1
  C  C18  1  0.50000000  0.28471338  0.41867527  1
  C  C19  1  0.50000000  0.28649956  0.91658400  1
  C  C20  1  0.50000000  0.28395874  0.16674480  1
  C  C21  1  0.50000000  0.28669567  0.66782229  1
  C  C22  1  0.50000000  0.28367585  0.29293508  1
  C  C23  1  0.50000000  0.28681566  0.79229672  1
  C  C24  1  0.50000000  0.34521294  0.08271346  1
  C  C25  1  0.50000000  0.34704667  0.58362151  1
  C  C26  1  0.50000000  0.34579314  0.45876029  1
  C  C27  1  0.50000000  0.34689097  0.95778743  1
  C  C28  1  0.50000000  0.34407314  0.20805289  1
  C  C29  1  0.50000000  0.34742553  0.70834119  1
  C  C30  1  0.50000000  0.34431213  0.33342451  1
  C  C31  1  0.50000000  0.34743296  0.83312889  1
  C  C32  1  0.50000000  0.37574144  0.10399307  1
  C  C33  1  0.50000000  0.37805929  0.60426683  1
  C  C34  1  0.50000000  0.37687639  0.47951490  1
  C  C35  1  0.50000000  0.37762592  0.97889733  1
  C  C36  1  0.50000000  0.37478876  0.22912720  1
  C  C37  1  0.50000000  0.37825307  0.72919531  1
  C  C38  1  0.50000000  0.37520962  0.35430723  1
  C  C39  1  0.50000000  0.37820622  0.85409588  1
  C  C40  1  0.50000000  0.31548469  0.02006732  1
  C  C41  1  0.50000000  0.31590612  0.52168790  1
  C  C42  1  0.50000000  0.31433638  0.39664657  1
  C  C43  1  0.50000000  0.31659841  0.89546833  1
  C  C44  1  0.50000000  0.31393240  0.14523451  1
  C  C45  1  0.50000000  0.31661518  0.64627846  1
  C  C46  1  0.50000000  0.31339996  0.27097111  1
  C  C47  1  0.50000000  0.31681902  0.77090143  1
  C  C48  1  0.50000000  0.34587726  0.04108734  1
  C  C49  1  0.50000000  0.34677354  0.54209349  1
  C  C50  1  0.50000000  0.34513554  0.41712218  1
  C  C51  1  0.50000000  0.34716602  0.91627917  1
  C  C52  1  0.50000000  0.34433494  0.16632737  1
  C  C53  1  0.50000000  0.34736675  0.66676680  1
  C  C54  1  0.50000000  0.34405838  0.29170571  1
  C  C55  1  0.50000000  0.34745769  0.79156821  1
  C  C56  1  0.50000000  0.40647192  0.08333347  1
  C  C57  1  0.50000000  0.40861738  0.58326993  1
  C  C58  1  0.50000000  0.40719769  0.45834800  1
  C  C59  1  0.50000000  0.40854601  0.95832641  1
  C  C60  1  0.50000000  0.40537550  0.20834481  1
  C  C61  1  0.50000000  0.40882868  0.70823864  1
  C  C62  1  0.50000000  0.40557341  0.33323582  1
  C  C63  1  0.50000000  0.40889577  0.83335391  1
  C  C64  1  0.50000000  0.43670134  0.10453205  1
  C  C65  1  0.50000000  0.43949371  0.60391561  1
  C  C66  1  0.50000000  0.43811950  0.47897302  1
  C  C67  1  0.50000000  0.43916313  0.97937426  1
  C  C68  1  0.50000000  0.43583912  0.22930222  1
  C  C69  1  0.50000000  0.43940742  0.72912802  1
  C  C70  1  0.50000000  0.43622652  0.35384787  1
  C  C71  1  0.50000000  0.43949839  0.85422520  1
  C  C72  1  0.50000000  0.37697989  0.02036236  1
  C  C73  1  0.50000000  0.37751362  0.52099023  1
  C  C74  1  0.50000000  0.37566663  0.39583821  1
  C  C75  1  0.50000000  0.37815282  0.89560333  1
  C  C76  1  0.50000000  0.37525465  0.14549930  1
  C  C77  1  0.50000000  0.37812886  0.64578314  1
  C  C78  1  0.50000000  0.37478697  0.27066795  1
  C  C79  1  0.50000000  0.37827304  0.77070139  1
  C  C80  1  0.50000000  0.40730079  0.04152705  1
  C  C81  1  0.50000000  0.40843319  0.54156612  1
  C  C82  1  0.50000000  0.40638164  0.41652975  1
  C  C83  1  0.50000000  0.40870423  0.91662163  1
  C  C84  1  0.50000000  0.40560914  0.16660687  1
  C  C85  1  0.50000000  0.40883411  0.66652066  1
  C  C86  1  0.50000000  0.40535877  0.29149373  1
  C  C87  1  0.50000000  0.40887153  0.79163182  1
  C  C88  1  0.50000000  0.46763451  0.08399020  1
  C  C89  1  0.50000000  0.47023831  0.58307795  1
  C  C90  1  0.50000000  0.46861392  0.45768897  1
  C  C91  1  0.50000000  0.47050141  0.95878554  1
  C  C92  1  0.50000000  0.46670894  0.20875524  1
  C  C93  1  0.50000000  0.47008592  0.70822849  1
  C  C94  1  0.50000000  0.46669081  0.33242575  1
  C  C95  1  0.50000000  0.47013587  0.83314740  1
  C  C96  1  0.50000000  0.49734832  0.10606585  1
  C  C97  1  0.50000000  0.50088604  0.60444483  1
  C  C98  1  0.50000000  0.49986285  0.47791051  1
  C  C99  1  0.50000000  0.50116928  0.97978624  1
  C  C100  1  0.50000000  0.49736914  0.22919514  1
  C  C101  1  0.50000000  0.50073094  0.72913449  1
  C  C102  1  0.50000000  0.49729174  0.35249327  1
  C  C103  1  0.50000000  0.50083548  0.85375080  1
  C  C104  1  0.50000000  0.43824053  0.02092211  1
  C  C105  1  0.50000000  0.43901854  0.52050511  1
  C  C106  1  0.50000000  0.43662009  0.39535000  1
  C  C107  1  0.50000000  0.43957260  0.89595673  1
  C  C108  1  0.50000000  0.43628943  0.14602854  1
  C  C109  1  0.50000000  0.43944900  0.64563834  1
  C  C110  1  0.50000000  0.43582441  0.27054844  1
  C  C111  1  0.50000000  0.43942503  0.77072372  1
  C  C112  1  0.50000000  0.46872486  0.04223188  1
  C  C113  1  0.50000000  0.47040884  0.54108543  1
  C  C114  1  0.50000000  0.46752507  0.41593160  1
  C  C115  1  0.50000000  0.47031889  0.91679592  1
  C  C116  1  0.50000000  0.46676323  0.16747709  1
  C  C117  1  0.50000000  0.47009890  0.66670073  1
  C  C118  1  0.50000000  0.46666746  0.29114234  1
  C  C119  1  0.50000000  0.47009949  0.79161365  1
  C  C120  1  0.50000000  0.52743140  0.08604153  1
  C  C121  1  0.50000000  0.53166094  0.58430392  1
  C  C122  1  0.50000000  0.52815771  0.45331646  1
  C  C123  1  0.50000000  0.53226259  0.95747925  1
  C  C124  1  0.50000000  0.52753592  0.20822517  1
  C  C125  1  0.50000000  0.53141682  0.70855752  1
  C  C126  1  0.50000000  0.52744541  0.33146196  1
  C  C127  1  0.50000000  0.53142080  0.83267040  1
  C  C128  1  0.50000000  0.56238158  0.60572525  1
  C  C129  1  0.50000000  0.56389988  0.97385544  1
  C  C130  1  0.50000000  0.56226857  0.72926666  1
  C  C131  1  0.50000000  0.56231242  0.85289101  1
  C  C132  1  0.50000000  0.49995690  0.02199936  1
  C  C133  1  0.50000000  0.50112692  0.52010356  1
  C  C134  1  0.50000000  0.49723560  0.39387614  1
  C  C135  1  0.50000000  0.50094086  0.89540325  1
  C  C136  1  0.50000000  0.49739697  0.14746089  1
  C  C137  1  0.50000000  0.50080009  0.64609601  1
  C  C138  1  0.50000000  0.49735049  0.27073579  1
  C  C139  1  0.50000000  0.50073391  0.77070021  1
  C  C140  1  0.50000000  0.52826876  0.04661216  1
  C  C141  1  0.50000000  0.53221630  0.54237240  1
  C  C142  1  0.50000000  0.52730885  0.41390698  1
  C  C143  1  0.50000000  0.53170972  0.91554886  1
  C  C144  1  0.50000000  0.52754352  0.16853940  1
  C  C145  1  0.50000000  0.53139841  0.66716707  1
  C  C146  1  0.50000000  0.52748086  0.29178921  1
  C  C147  1  0.50000000  0.53142167  0.79127067  1
  C  C148  1  0.50000000  0.59371596  0.58667324  1
  C  C149  1  0.50000000  0.59415298  0.95411776  1
  C  C150  1  0.50000000  0.59311441  0.70887296  1
  C  C151  1  0.50000000  0.59319994  0.83230186  1
  C  C152  1  0.50000000  0.62445781  0.60642770  1
  C  C153  1  0.50000000  0.62398314  0.97513115  1
  C  C154  1  0.50000000  0.62389240  0.72932805  1
  C  C155  1  0.50000000  0.62414489  0.85232744  1
  C  C156  1  0.50000000  0.56385512  0.52597466  1
  C  C157  1  0.50000000  0.56243023  0.89412378  1
  C  C158  1  0.50000000  0.56228868  0.64694496  1
  C  C159  1  0.50000000  0.56226894  0.77055281  1
  C  C160  1  0.50000000  0.59408948  0.54575078  1
  C  C161  1  0.50000000  0.59377144  0.91317164  1
  C  C162  1  0.50000000  0.59319298  0.66750322  1
  C  C163  1  0.50000000  0.59312406  0.79092634  1
  C  C164  1  0.50000000  0.65507087  0.58526410  1
  C  C165  1  0.50000000  0.65480364  0.95610485  1
  C  C166  1  0.50000000  0.65494970  0.70884483  1
  C  C167  1  0.50000000  0.65511577  0.83212724  1
  C  C168  1  0.50000000  0.68606541  0.60504368  1
  C  C169  1  0.50000000  0.68531040  0.97666499  1
  C  C170  1  0.50000000  0.68569025  0.72910533  1
  C  C171  1  0.50000000  0.68580399  0.85278592  1
  C  C172  1  0.50000000  0.62392697  0.52478377  1
  C  C173  1  0.50000000  0.62447555  0.89335630  1
  C  C174  1  0.50000000  0.62412938  0.64744810  1
  C  C175  1  0.50000000  0.62390047  0.77046384  1
  C  C176  1  0.50000000  0.65478636  0.54368142  1
  C  C177  1  0.50000000  0.65507310  0.91451877  1
  C  C178  1  0.50000000  0.65510650  0.66764333  1
  C  C179  1  0.50000000  0.65496159  0.79093509  1
  C  C180  1  0.50000000  0.71570268  0.58333308  1
  C  C181  1  0.50000000  0.71529782  0.95685344  1
  C  C182  1  0.50000000  0.71566644  0.70794628  1
  C  C183  1  0.50000000  0.71572940  0.83166086  1
  C  C184  1  0.50000000  0.68524128  0.52299210  1
  C  C185  1  0.50000000  0.68605144  0.89471586  1
  C  C186  1  0.50000000  0.68580935  0.64697300  1
  C  C187  1  0.50000000  0.68570316  0.77069295  1
  C  C188  1  0.50000000  0.71522382  0.54281781  1
  C  C189  1  0.50000000  0.71572329  0.91633703  1
  C  C190  1  0.50000000  0.71572138  0.66811907  1
  C  C191  1  0.50000000  0.71568715  0.79183307  1
  H  H192  1  0.50000000  0.26058938  0.09556473  1
  H  H193  1  0.50000000  0.26246990  0.59835974  1
  H  H194  1  0.50000000  0.26142959  0.47388535  1
  H  H195  1  0.50000000  0.26213295  0.97113790  1
  H  H196  1  0.50000000  0.25952992  0.22128678  1
  H  H197  1  0.50000000  0.26282135  0.72256016  1
  H  H198  1  0.50000000  0.26001043  0.34799906  1
  H  H199  1  0.50000000  0.26281385  0.84708843  1
  H  H200  1  0.50000000  0.26148893  0.02599097  1
  H  H201  1  0.50000000  0.26200297  0.52873245  1
  H  H202  1  0.50000000  0.26062087  0.40405253  1
  H  H203  1  0.50000000  0.26266548  0.90137605  1
  H  H204  1  0.50000000  0.26003879  0.15172151  1
  H  H205  1  0.50000000  0.26263344  0.65310640  1
  H  H206  1  0.50000000  0.25957580  0.27825570  1
  H  H207  1  0.50000000  0.26286075  0.77734553  1
  H  H208  1  0.50000000  0.73982965  0.59789201  1
  H  H209  1  0.50000000  0.73882425  0.97284348  1
  H  H210  1  0.50000000  0.73954517  0.72296969  1
  H  H211  1  0.50000000  0.73954808  0.84685119  1
  H  H212  1  0.50000000  0.73883056  0.52700549  1
  H  H213  1  0.50000000  0.73975423  0.90158169  1
  H  H214  1  0.50000000  0.73960384  0.65306065  1
  H  H215  1  0.50000000  0.73950800  0.77666811  1
  H  H216  1  0.50000000  0.55121765  0.10130312  1
  H  H217  1  0.50000000  0.55321234  0.46334754  1
  H  H218  1  0.50000000  0.55143286  0.22328297  1
  H  H219  1  0.50000000  0.55139318  0.34633063  1
  H  H220  1  0.50000000  0.56858299  0.00414848  1
  H  H221  1  0.50000000  0.55331826  0.03657559  1
  H  H222  1  0.50000000  0.55110953  0.39871486  1
  H  H223  1  0.50000000  0.55145966  0.15358052  1
  H  H224  1  0.50000000  0.55146445  0.27694042  1
  H  H225  1  0.50000000  0.62316429  0.00689215  1
  H  H226  1  0.50000000  0.56854753  0.49566465  1
  H  H227  1  0.50000000  0.68471907  0.00833572  1
  H  H228  1  0.50000000  0.62305764  0.49307439  1
  H  H229  1  0.50000000  0.68462516  0.49129183  1
