# generated using pymatgen
data_H9C32
_symmetry_space_group_name_H-M   'P 1'
_cell_length_a   20.00000000
_cell_length_b   40.19450000
_cell_length_c   34.61255924
_cell_angle_alpha   90.00000000
_cell_angle_beta   90.00000000
_cell_angle_gamma   90.00000000
_symmetry_Int_Tables_number   1
_chemical_formula_structural   H9C32
_chemical_formula_sum   'H54 C192'
_cell_volume   27824.69024999
_cell_formula_units_Z   6
loop_
 _symmetry_equiv_pos_site_id
 _symmetry_equiv_pos_as_xyz
  1  'x, y, z'
loop_
 _atom_site_type_symbol
 _atom_site_label
 _atom_site_symmetry_multiplicity
 _atom_site_fract_x
 _atom_site_fract_y
 _atom_site_fract_z
 _atom_site_occupancy
  C  C0  1  0.50000000  0.28418560  0.08327268  1
  C  C1  1  0.50000000  0.28220868  0.58156073  1
  C  C2  1  0.50000000  0.28354725  0.45635328  1
  C  C3  1  0.50000000  0.28250467  0.95809283  1
  C  C4  1  0.50000000  0.28529605  0.20764323  1
  C  C5  1  0.50000000  0.28173576  0.70708533  1
  C  C6  1  0.50000000  0.28506916  0.33188390  1
  C  C7  1  0.50000000  0.28182047  0.83255103  1
  C  C8  1  0.50000000  0.31440448  0.10420140  1
  C  C9  1  0.50000000  0.31192366  0.60357023  1
  C  C10  1  0.50000000  0.31314579  0.47840518  1
  C  C11  1  0.50000000  0.31258140  0.97931849  1
  C  C12  1  0.50000000  0.31528082  0.22885828  1
  C  C13  1  0.50000000  0.31153462  0.72883569  1
  C  C14  1  0.50000000  0.31483710  0.35350862  1
  C  C15  1  0.50000000  0.31170873  0.85410163  1
  C  C16  1  0.50000000  0.28347026  0.04340407  1
  C  C17  1  0.50000000  0.28256532  0.54163184  1
  C  C18  1  0.50000000  0.28421748  0.41649116  1
  C  C19  1  0.50000000  0.28212911  0.91816783  1
  C  C20  1  0.50000000  0.28510327  0.16778600  1
  C  C21  1  0.50000000  0.28186562  0.66712047  1
  C  C22  1  0.50000000  0.28526830  0.29202864  1
  C  C23  1  0.50000000  0.28172367  0.79257701  1
  C  C24  1  0.50000000  0.34466965  0.08314982  1
  C  C25  1  0.50000000  0.34271321  0.58315752  1
  C  C26  1  0.50000000  0.34399752  0.45814824  1
  C  C27  1  0.50000000  0.34296567  0.95817787  1
  C  C28  1  0.50000000  0.34581654  0.20813099  1
  C  C29  1  0.50000000  0.34223530  0.70817553  1
  C  C30  1  0.50000000  0.34556282  0.33310792  1
  C  C31  1  0.50000000  0.34232257  0.83320318  1
  C  C32  1  0.50000000  0.37589042  0.10373998  1
  C  C33  1  0.50000000  0.37347737  0.60443725  1
  C  C34  1  0.50000000  0.37448989  0.47958553  1
  C  C35  1  0.50000000  0.37403623  0.97870979  1
  C  C36  1  0.50000000  0.37680908  0.22902212  1
  C  C37  1  0.50000000  0.37304665  0.72913901  1
  C  C38  1  0.50000000  0.37632756  0.35433495  1
  C  C39  1  0.50000000  0.37323922  0.85385015  1
  C  C40  1  0.50000000  0.31306813  0.02133489  1
  C  C41  1  0.50000000  0.31265100  0.52041067  1
  C  C42  1  0.50000000  0.31439904  0.39550454  1
  C  C43  1  0.50000000  0.31184474  0.89615864  1
  C  C44  1  0.50000000  0.31487280  0.14619019  1
  C  C45  1  0.50000000  0.31176374  0.64562072  1
  C  C46  1  0.50000000  0.31527756  0.27084772  1
  C  C47  1  0.50000000  0.31152770  0.77086232  1
  C  C48  1  0.50000000  0.34393333  0.04157113  1
  C  C49  1  0.50000000  0.34304011  0.54155484  1
  C  C50  1  0.50000000  0.34468121  0.41654911  1
  C  C51  1  0.50000000  0.34264017  0.91658900  1
  C  C52  1  0.50000000  0.34559679  0.16659606  1
  C  C53  1  0.50000000  0.34234387  0.66656170  1
  C  C54  1  0.50000000  0.34580115  0.29158646  1
  C  C55  1  0.50000000  0.34224087  0.79157385  1
  C  C56  1  0.50000000  0.40619185  0.08257719  1
  C  C57  1  0.50000000  0.40413234  0.58394840  1
  C  C58  1  0.50000000  0.40547375  0.45940786  1
  C  C59  1  0.50000000  0.40437472  0.95740229  1
  C  C60  1  0.50000000  0.40734373  0.20812810  1
  C  C61  1  0.50000000  0.40374151  0.70843745  1
  C  C62  1  0.50000000  0.40706485  0.33380649  1
  C  C63  1  0.50000000  0.40380589  0.83291102  1
  C  C64  1  0.50000000  0.43622925  0.10379768  1
  C  C65  1  0.50000000  0.43482078  0.60492303  1
  C  C66  1  0.50000000  0.43470445  0.48129249  1
  C  C67  1  0.50000000  0.43502178  0.97799261  1
  C  C68  1  0.50000000  0.43715845  0.22983448  1
  C  C69  1  0.50000000  0.43442147  0.72920112  1
  C  C70  1  0.50000000  0.43667640  0.35578644  1
  C  C71  1  0.50000000  0.43459498  0.85341225  1
  C  C72  1  0.50000000  0.37441984  0.02011532  1
  C  C73  1  0.50000000  0.37410654  0.52098640  1
  C  C74  1  0.50000000  0.37589960  0.39594341  1
  C  C75  1  0.50000000  0.37342545  0.89534319  1
  C  C76  1  0.50000000  0.37635203  0.14534609  1
  C  C77  1  0.50000000  0.37326516  0.64590679  1
  C  C78  1  0.50000000  0.37678930  0.27065729  1
  C  C79  1  0.50000000  0.37303568  0.77057620  1
  C  C80  1  0.50000000  0.40540781  0.04029526  1
  C  C81  1  0.50000000  0.40444562  0.54232302  1
  C  C82  1  0.50000000  0.40623171  0.41709306  1
  C  C83  1  0.50000000  0.40408970  0.91578403  1
  C  C84  1  0.50000000  0.40710777  0.16584874  1
  C  C85  1  0.50000000  0.40383834  0.66682870  1
  C  C86  1  0.50000000  0.40730437  0.29155487  1
  C  C87  1  0.50000000  0.40370780  0.79129418  1
  C  C88  1  0.50000000  0.46572050  0.58461140  1
  C  C89  1  0.50000000  0.46629686  0.95667605  1
  C  C90  1  0.50000000  0.46527967  0.70861594  1
  C  C91  1  0.50000000  0.46531960  0.83244756  1
  C  C92  1  0.50000000  0.49631437  0.60561077  1
  C  C93  1  0.50000000  0.49677429  0.97564606  1
  C  C94  1  0.50000000  0.49603187  0.72924794  1
  C  C95  1  0.50000000  0.49610131  0.85278642  1
  C  C96  1  0.50000000  0.43461540  0.01843057  1
  C  C97  1  0.50000000  0.43510095  0.52174070  1
  C  C98  1  0.50000000  0.43625872  0.39582480  1
  C  C99  1  0.50000000  0.43477841  0.89480792  1
  C  C100  1  0.50000000  0.43670604  0.14383716  1
  C  C101  1  0.50000000  0.43463085  0.64631807  1
  C  C102  1  0.50000000  0.43712652  0.26988074  1
  C  C103  1  0.50000000  0.43441951  0.77055980  1
  C  C104  1  0.50000000  0.46637544  0.54307574  1
  C  C105  1  0.50000000  0.46565576  0.91514623  1
  C  C106  1  0.50000000  0.46534660  0.66732738  1
  C  C107  1  0.50000000  0.46526484  0.79116953  1
  C  C108  1  0.50000000  0.52715070  0.58563543  1
  C  C109  1  0.50000000  0.52737974  0.95567767  1
  C  C110  1  0.50000000  0.52682930  0.70883720  1
  C  C111  1  0.50000000  0.52681558  0.83216603  1
  C  C112  1  0.50000000  0.55782656  0.60621303  1
  C  C113  1  0.50000000  0.55785959  0.97538965  1
  C  C114  1  0.50000000  0.55775048  0.72930151  1
  C  C115  1  0.50000000  0.55768246  0.85252458  1
  C  C116  1  0.50000000  0.49687460  0.52417896  1
  C  C117  1  0.50000000  0.49625451  0.89418445  1
  C  C118  1  0.50000000  0.49614702  0.64700443  1
  C  C119  1  0.50000000  0.49603005  0.77057226  1
  C  C120  1  0.50000000  0.52747090  0.54416832  1
  C  C121  1  0.50000000  0.52705990  0.91420071  1
  C  C122  1  0.50000000  0.52686070  0.66764522  1
  C  C123  1  0.50000000  0.52681806  0.79097896  1
  C  C124  1  0.50000000  0.58850614  0.58585880  1
  C  C125  1  0.50000000  0.58830768  0.95530832  1
  C  C126  1  0.50000000  0.58857383  0.70882180  1
  C  C127  1  0.50000000  0.58857899  0.83238272  1
  C  C128  1  0.50000000  0.61952168  0.60536484  1
  C  C129  1  0.50000000  0.61860553  0.97546152  1
  C  C130  1  0.50000000  0.61923580  0.72934724  1
  C  C131  1  0.50000000  0.61925738  0.85308435  1
  C  C132  1  0.50000000  0.55795922  0.52447192  1
  C  C133  1  0.50000000  0.55772225  0.89362451  1
  C  C134  1  0.50000000  0.55775814  0.64730575  1
  C  C135  1  0.50000000  0.55773103  0.77050003  1
  C  C136  1  0.50000000  0.58841607  0.54454409  1
  C  C137  1  0.50000000  0.58837886  0.91399291  1
  C  C138  1  0.50000000  0.58866074  0.66744466  1
  C  C139  1  0.50000000  0.58852710  0.79100423  1
  C  C140  1  0.50000000  0.66718820  0.08829870  1
  C  C141  1  0.50000000  0.65030219  0.58408842  1
  C  C142  1  0.50000000  0.66149020  0.45090539  1
  C  C143  1  0.50000000  0.65017629  0.95792719  1
  C  C144  1  0.50000000  0.67695372  0.20928007  1
  C  C145  1  0.50000000  0.65012647  0.70868877  1
  C  C146  1  0.50000000  0.67516671  0.33037228  1
  C  C147  1  0.50000000  0.65003823  0.83244672  1
  C  C148  1  0.50000000  0.69934339  0.10401170  1
  C  C149  1  0.50000000  0.68072143  0.60500196  1
  C  C150  1  0.50000000  0.68709202  0.47876906  1
  C  C151  1  0.50000000  0.68177991  0.97872944  1
  C  C152  1  0.50000000  0.70769640  0.22869964  1
  C  C153  1  0.50000000  0.68083819  0.72909290  1
  C  C154  1  0.50000000  0.70383343  0.35373635  1
  C  C155  1  0.50000000  0.68061280  0.85309664  1
  C  C156  1  0.50000000  0.61871809  0.52438010  1
  C  C157  1  0.50000000  0.61938196  0.89447870  1
  C  C158  1  0.50000000  0.61936245  0.64675318  1
  C  C159  1  0.50000000  0.61921328  0.77050522  1
  C  C160  1  0.50000000  0.66116962  0.04902078  1
  C  C161  1  0.50000000  0.65030390  0.54190595  1
  C  C162  1  0.50000000  0.66745866  0.41162402  1
  C  C163  1  0.50000000  0.65016474  0.91575405  1
  C  C164  1  0.50000000  0.67496602  0.16958846  1
  C  C165  1  0.50000000  0.65012221  0.66740509  1
  C  C166  1  0.50000000  0.67701110  0.29067286  1
  C  C167  1  0.50000000  0.65009251  0.79115885  1
  C  C168  1  0.50000000  0.72551504  0.07696861  1
  C  C169  1  0.50000000  0.71064541  0.58398303  1
  C  C170  1  0.50000000  0.71965516  0.46247584  1
  C  C171  1  0.50000000  0.71065844  0.95580887  1
  C  C172  1  0.50000000  0.73653294  0.20555655  1
  C  C173  1  0.50000000  0.71076823  0.70777418  1
  C  C174  1  0.50000000  0.73477283  0.33448658  1
  C  C175  1  0.50000000  0.71061320  0.83193350  1
  C  C176  1  0.50000000  0.68678303  0.02113780  1
  C  C177  1  0.50000000  0.68194397  0.52113596  1
  C  C178  1  0.50000000  0.69961313  0.39585432  1
  C  C179  1  0.50000000  0.68059348  0.89484496  1
  C  C180  1  0.50000000  0.70356174  0.14611243  1
  C  C181  1  0.50000000  0.68071102  0.64676479  1
  C  C182  1  0.50000000  0.70772478  0.27112971  1
  C  C183  1  0.50000000  0.68081359  0.77074506  1
  C  C184  1  0.50000000  0.71933934  0.03741274  1
  C  C185  1  0.50000000  0.71080562  0.54406251  1
  C  C186  1  0.50000000  0.72579157  0.42289411  1
  C  C187  1  0.50000000  0.71050667  0.91589086  1
  C  C188  1  0.50000000  0.73453668  0.16523534  1
  C  C189  1  0.50000000  0.71070476  0.66795043  1
  C  C190  1  0.50000000  0.73662574  0.29416235  1
  C  C191  1  0.50000000  0.71071897  0.79210233  1
  H  H192  1  0.50000000  0.26048370  0.09869418  1
  H  H193  1  0.50000000  0.25797749  0.59592332  1
  H  H194  1  0.50000000  0.25927973  0.47062236  1
  H  H195  1  0.50000000  0.25862888  0.97323638  1
  H  H196  1  0.50000000  0.26142287  0.22271965  1
  H  H197  1  0.50000000  0.25765741  0.72178348  1
  H  H198  1  0.50000000  0.26105423  0.34663041  1
  H  H199  1  0.50000000  0.25788008  0.84754720  1
  H  H200  1  0.50000000  0.25920888  0.02911546  1
  H  H201  1  0.50000000  0.25867878  0.52649070  1
  H  H202  1  0.50000000  0.26049155  0.40112429  1
  H  H203  1  0.50000000  0.25789026  0.90381163  1
  H  H204  1  0.50000000  0.26111708  0.15295911  1
  H  H205  1  0.50000000  0.25790879  0.65216066  1
  H  H206  1  0.50000000  0.26139769  0.27693896  1
  H  H207  1  0.50000000  0.25769320  0.77777522  1
  H  H208  1  0.50000000  0.75148748  0.08660316  1
  H  H209  1  0.50000000  0.73467383  0.59871861  1
  H  H210  1  0.50000000  0.74168071  0.48090785  1
  H  H211  1  0.50000000  0.73508932  0.96949069  1
  H  H212  1  0.50000000  0.76113651  0.21919536  1
  H  H213  1  0.50000000  0.73471000  0.72274441  1
  H  H214  1  0.50000000  0.75799616  0.35109882  1
  H  H215  1  0.50000000  0.73453006  0.84694761  1
  H  H216  1  0.50000000  0.74131903  0.01890758  1
  H  H217  1  0.50000000  0.73520839  0.53032543  1
  H  H218  1  0.50000000  0.75175639  0.41323485  1
  H  H219  1  0.50000000  0.73453340  0.90114936  1
  H  H220  1  0.50000000  0.75770815  0.14852412  1
  H  H221  1  0.50000000  0.73462673  0.65294463  1
  H  H222  1  0.50000000  0.76119151  0.28042088  1
  H  H223  1  0.50000000  0.73469460  0.77721165  1
  H  H224  1  0.50000000  0.46014721  0.08872024  1
  H  H225  1  0.50000000  0.45835075  0.46597349  1
  H  H226  1  0.50000000  0.46125084  0.21513745  1
  H  H227  1  0.50000000  0.46084270  0.34124307  1
  H  H228  1  0.50000000  0.49798959  0.00720650  1
  H  H229  1  0.50000000  0.45824488  0.03380056  1
  H  H230  1  0.50000000  0.46025745  0.41075356  1
  H  H231  1  0.50000000  0.46087243  0.15838454  1
  H  H232  1  0.50000000  0.46117381  0.28466889  1
  H  H233  1  0.50000000  0.55799289  0.00710504  1
  H  H234  1  0.50000000  0.49815267  0.49262331  1
  H  H235  1  0.50000000  0.61543759  0.00641743  1
  H  H236  1  0.50000000  0.55811353  0.49276088  1
  H  H237  1  0.50000000  0.64529090  0.10689158  1
  H  H238  1  0.50000000  0.63540919  0.45829227  1
  H  H239  1  0.50000000  0.65355232  0.22518008  1
  H  H240  1  0.50000000  0.65034797  0.34310967  1
  H  H241  1  0.50000000  0.61560412  0.49341467  1
  H  H242  1  0.50000000  0.63507419  0.04165926  1
  H  H243  1  0.50000000  0.64546773  0.39317213  1
  H  H244  1  0.50000000  0.65009689  0.15702829  1
  H  H245  1  0.50000000  0.65351744  0.27491967  1
