# generated using pymatgen
data_H9C32
_symmetry_space_group_name_H-M   'P 1'
_cell_length_a   20.00000000
_cell_length_b   40.19450000
_cell_length_c   34.68539290
_cell_angle_alpha   90.00000000
_cell_angle_beta   90.00000000
_cell_angle_gamma   90.00000000
_symmetry_Int_Tables_number   1
_chemical_formula_structural   H9C32
_chemical_formula_sum   'H54 C192'
_cell_volume   27883.24050139
_cell_formula_units_Z   6
loop_
 _symmetry_equiv_pos_site_id
 _symmetry_equiv_pos_as_xyz
  1  'x, y, z'
loop_
 _atom_site_type_symbol
 _atom_site_label
 _atom_site_symmetry_multiplicity
 _atom_site_fract_x
 _atom_site_fract_y
 _atom_site_fract_z
 _atom_site_occupancy
  C  C0  1  0.50000000  0.28342062  0.08052092  1
  C  C1  1  0.50000000  0.28664572  0.58337358  1
  C  C2  1  0.50000000  0.28447284  0.45903008  1
  C  C3  1  0.50000000  0.28622955  0.95605073  1
  C  C4  1  0.50000000  0.28172792  0.20658612  1
  C  C5  1  0.50000000  0.28695093  0.70752590  1
  C  C6  1  0.50000000  0.28201797  0.33305350  1
  C  C7  1  0.50000000  0.28699718  0.83202521  1
  C  C8  1  0.50000000  0.31285460  0.10307662  1
  C  C9  1  0.50000000  0.31681832  0.60441157  1
  C  C10  1  0.50000000  0.31489182  0.47993867  1
  C  C11  1  0.50000000  0.31590924  0.97803716  1
  C  C12  1  0.50000000  0.31143420  0.22884699  1
  C  C13  1  0.50000000  0.31687407  0.72894666  1
  C  C14  1  0.50000000  0.31209704  0.35469023  1
  C  C15  1  0.50000000  0.31688254  0.85353622  1
  C  C16  1  0.50000000  0.28449368  0.04075737  1
  C  C17  1  0.50000000  0.28620643  0.54371265  1
  C  C18  1  0.50000000  0.28339726  0.41926660  1
  C  C19  1  0.50000000  0.28667508  0.91638531  1
  C  C20  1  0.50000000  0.28204508  0.16670586  1
  C  C21  1  0.50000000  0.28696210  0.66773592  1
  C  C22  1  0.50000000  0.28171213  0.29317403  1
  C  C23  1  0.50000000  0.28697654  0.79223035  1
  C  C24  1  0.50000000  0.34383589  0.08280757  1
  C  C25  1  0.50000000  0.34727751  0.58345004  1
  C  C26  1  0.50000000  0.34505006  0.45863364  1
  C  C27  1  0.50000000  0.34697429  0.95788901  1
  C  C28  1  0.50000000  0.34209047  0.20809404  1
  C  C29  1  0.50000000  0.34749369  0.70823510  1
  C  C30  1  0.50000000  0.34243681  0.33343209  1
  C  C31  1  0.50000000  0.34754624  0.83306586  1
  C  C32  1  0.50000000  0.37411352  0.10439308  1
  C  C33  1  0.50000000  0.37838363  0.60404818  1
  C  C34  1  0.50000000  0.37636022  0.47916171  1
  C  C35  1  0.50000000  0.37767674  0.97927542  1
  C  C36  1  0.50000000  0.37268087  0.22931724  1
  C  C37  1  0.50000000  0.37822619  0.72915485  1
  C  C38  1  0.50000000  0.37340094  0.35406921  1
  C  C39  1  0.50000000  0.37829702  0.85414731  1
  C  C40  1  0.50000000  0.31491634  0.01982803  1
  C  C41  1  0.50000000  0.31587553  0.52171903  1
  C  C42  1  0.50000000  0.31282232  0.39668166  1
  C  C43  1  0.50000000  0.31685501  0.89534583  1
  C  C44  1  0.50000000  0.31212102  0.14505723  1
  C  C45  1  0.50000000  0.31684996  0.64620976  1
  C  C46  1  0.50000000  0.31142384  0.27091743  1
  C  C47  1  0.50000000  0.31689265  0.77081247  1
  C  C48  1  0.50000000  0.34508999  0.04112217  1
  C  C49  1  0.50000000  0.34692878  0.54187190  1
  C  C50  1  0.50000000  0.34380690  0.41694818  1
  C  C51  1  0.50000000  0.34731219  0.91631459  1
  C  C52  1  0.50000000  0.34245905  0.16632352  1
  C  C53  1  0.50000000  0.34752808  0.66666700  1
  C  C54  1  0.50000000  0.34207625  0.29166858  1
  C  C55  1  0.50000000  0.34751695  0.79149430  1
  C  C56  1  0.50000000  0.40515005  0.08400378  1
  C  C57  1  0.50000000  0.40893528  0.58307591  1
  C  C58  1  0.50000000  0.40661724  0.45761481  1
  C  C59  1  0.50000000  0.40908253  0.95884407  1
  C  C60  1  0.50000000  0.40349428  0.20868670  1
  C  C61  1  0.50000000  0.40873568  0.70827620  1
  C  C62  1  0.50000000  0.40371384  0.33241164  1
  C  C63  1  0.50000000  0.40876222  0.83307741  1
  C  C64  1  0.50000000  0.43472341  0.10620530  1
  C  C65  1  0.50000000  0.43947363  0.60444422  1
  C  C66  1  0.50000000  0.43802712  0.47766851  1
  C  C67  1  0.50000000  0.43965956  0.97993080  1
  C  C68  1  0.50000000  0.43408021  0.22921498  1
  C  C69  1  0.50000000  0.43928389  0.72913641  1
  C  C70  1  0.50000000  0.43444812  0.35228811  1
  C  C71  1  0.50000000  0.43941645  0.85370939  1
  C  C72  1  0.50000000  0.37642332  0.02061063  1
  C  C73  1  0.50000000  0.37763654  0.52049321  1
  C  C74  1  0.50000000  0.37409174  0.39536701  1
  C  C75  1  0.50000000  0.37841482  0.89569279  1
  C  C76  1  0.50000000  0.37342417  0.14568664  1
  C  C77  1  0.50000000  0.37828171  0.64557046  1
  C  C78  1  0.50000000  0.37267322  0.27044040  1
  C  C79  1  0.50000000  0.37824367  0.77057143  1
  C  C80  1  0.50000000  0.40669598  0.04217000  1
  C  C81  1  0.50000000  0.40905703  0.54091050  1
  C  C82  1  0.50000000  0.40512592  0.41575527  1
  C  C83  1  0.50000000  0.40897178  0.91666202  1
  C  C84  1  0.50000000  0.40373786  0.16734023  1
  C  C85  1  0.50000000  0.40875456  0.66664054  1
  C  C86  1  0.50000000  0.40348789  0.29106924  1
  C  C87  1  0.50000000  0.40874474  0.79143877  1
  C  C88  1  0.50000000  0.46501281  0.08629920  1
  C  C89  1  0.50000000  0.47033424  0.58415293  1
  C  C90  1  0.50000000  0.46622331  0.45274943  1
  C  C91  1  0.50000000  0.47090064  0.95741735  1
  C  C92  1  0.50000000  0.46434390  0.20829995  1
  C  C93  1  0.50000000  0.47001680  0.70846039  1
  C  C94  1  0.50000000  0.46453635  0.33093952  1
  C  C95  1  0.50000000  0.47003725  0.83252310  1
  C  C96  1  0.50000000  0.50087597  0.60570773  1
  C  C97  1  0.50000000  0.50259404  0.97369818  1
  C  C98  1  0.50000000  0.50065811  0.72921586  1
  C  C99  1  0.50000000  0.50078004  0.85270621  1
  C  C100  1  0.50000000  0.43811737  0.02209924  1
  C  C101  1  0.50000000  0.43962116  0.51981889  1
  C  C102  1  0.50000000  0.43471490  0.39353180  1
  C  C103  1  0.50000000  0.43949278  0.89526225  1
  C  C104  1  0.50000000  0.43447229  0.14746326  1
  C  C105  1  0.50000000  0.43940202  0.64600345  1
  C  C106  1  0.50000000  0.43408368  0.27055323  1
  C  C107  1  0.50000000  0.43928622  0.77056498  1
  C  C108  1  0.50000000  0.46632064  0.04703638  1
  C  C109  1  0.50000000  0.47089036  0.54230337  1
  C  C110  1  0.50000000  0.46498524  0.41348413  1
  C  C111  1  0.50000000  0.47034708  0.91555996  1
  C  C112  1  0.50000000  0.46454952  0.16884561  1
  C  C113  1  0.50000000  0.47002462  0.66718372  1
  C  C114  1  0.50000000  0.46435083  0.29148699  1
  C  C115  1  0.50000000  0.47001672  0.79124308  1
  C  C116  1  0.50000000  0.53220229  0.58680392  1
  C  C117  1  0.50000000  0.53276560  0.95373777  1
  C  C118  1  0.50000000  0.53147469  0.70885402  1
  C  C119  1  0.50000000  0.53152962  0.83193662  1
  C  C120  1  0.50000000  0.56284750  0.60696460  1
  C  C121  1  0.50000000  0.56308305  0.97418358  1
  C  C122  1  0.50000000  0.56236706  0.72934328  1
  C  C123  1  0.50000000  0.56262940  0.85188720  1
  C  C124  1  0.50000000  0.50259955  0.52603984  1
  C  C125  1  0.50000000  0.50089253  0.89401352  1
  C  C126  1  0.50000000  0.50076852  0.64701122  1
  C  C127  1  0.50000000  0.50065740  0.77050251  1
  C  C128  1  0.50000000  0.53277617  0.54600210  1
  C  C129  1  0.50000000  0.53221444  0.91293351  1
  C  C130  1  0.50000000  0.53151417  0.66779194  1
  C  C131  1  0.50000000  0.53147512  0.79087484  1
  C  C132  1  0.50000000  0.59347717  0.58635258  1
  C  C133  1  0.50000000  0.59352226  0.95483713  1
  C  C134  1  0.50000000  0.59322746  0.70908971  1
  C  C135  1  0.50000000  0.59334728  0.83174682  1
  C  C136  1  0.50000000  0.62422415  0.60632461  1
  C  C137  1  0.50000000  0.62433979  0.97480118  1
  C  C138  1  0.50000000  0.62398821  0.72943494  1
  C  C139  1  0.50000000  0.62410287  0.85235161  1
  C  C140  1  0.50000000  0.56311268  0.52557148  1
  C  C141  1  0.50000000  0.56285972  0.89278282  1
  C  C142  1  0.50000000  0.56261210  0.64786025  1
  C  C143  1  0.50000000  0.56237002  0.77040366  1
  C  C144  1  0.50000000  0.59355932  0.54491819  1
  C  C145  1  0.50000000  0.59348331  0.91340723  1
  C  C146  1  0.50000000  0.59332582  0.66801939  1
  C  C147  1  0.50000000  0.59323102  0.79067642  1
  C  C148  1  0.50000000  0.65506391  0.58554319  1
  C  C149  1  0.50000000  0.65482157  0.95608890  1
  C  C150  1  0.50000000  0.65486275  0.70890165  1
  C  C151  1  0.50000000  0.65487725  0.83203729  1
  C  C152  1  0.50000000  0.68711768  0.10284818  1
  C  C153  1  0.50000000  0.68547850  0.60586498  1
  C  C154  1  0.50000000  0.68806928  0.48300035  1
  C  C155  1  0.50000000  0.68665729  0.97685534  1
  C  C156  1  0.50000000  0.68522022  0.23001498  1
  C  C157  1  0.50000000  0.68555819  0.72923327  1
  C  C158  1  0.50000000  0.68574580  0.35743833  1
  C  C159  1  0.50000000  0.68559359  0.85271519  1
  C  C160  1  0.50000000  0.62439785  0.52497479  1
  C  C161  1  0.50000000  0.62424560  0.89345887  1
  C  C162  1  0.50000000  0.62407546  0.64743673  1
  C  C163  1  0.50000000  0.62398887  0.77034145  1
  C  C164  1  0.50000000  0.65486219  0.54374377  1
  C  C165  1  0.50000000  0.65509108  0.91426339  1
  C  C166  1  0.50000000  0.65484083  0.66777463  1
  C  C167  1  0.50000000  0.65486716  0.79090276  1
  C  C168  1  0.50000000  0.71628213  0.07996493  1
  C  C169  1  0.50000000  0.71609436  0.58467033  1
  C  C170  1  0.50000000  0.71680458  0.45984969  1
  C  C171  1  0.50000000  0.71658579  0.95452142  1
  C  C172  1  0.50000000  0.71417758  0.20655085  1
  C  C173  1  0.50000000  0.71563083  0.70793935  1
  C  C174  1  0.50000000  0.71409031  0.33316448  1
  C  C175  1  0.50000000  0.71567483  0.83138846  1
  C  C176  1  0.50000000  0.68799897  0.01692305  1
  C  C177  1  0.50000000  0.68674528  0.52305317  1
  C  C178  1  0.50000000  0.68686965  0.39719071  1
  C  C179  1  0.50000000  0.68552997  0.89396235  1
  C  C180  1  0.50000000  0.68614499  0.14259756  1
  C  C181  1  0.50000000  0.68553261  0.64710751  1
  C  C182  1  0.50000000  0.68504917  0.26978077  1
  C  C183  1  0.50000000  0.68555377  0.77056820  1
  C  C184  1  0.50000000  0.71678898  0.04001429  1
  C  C185  1  0.50000000  0.71666095  0.54542448  1
  C  C186  1  0.50000000  0.71614030  0.41990267  1
  C  C187  1  0.50000000  0.71610654  0.91522745  1
  C  C188  1  0.50000000  0.71452145  0.16683493  1
  C  C189  1  0.50000000  0.71562922  0.66840438  1
  C  C190  1  0.50000000  0.71384998  0.29347706  1
  C  C191  1  0.50000000  0.71564021  0.79184414  1
  H  H192  1  0.50000000  0.25902306  0.09454471  1
  H  H193  1  0.50000000  0.26280537  0.59850593  1
  H  H194  1  0.50000000  0.26077914  0.47445447  1
  H  H195  1  0.50000000  0.26205004  0.97045958  1
  H  H196  1  0.50000000  0.25759064  0.22114464  1
  H  H197  1  0.50000000  0.26298221  0.72242396  1
  H  H198  1  0.50000000  0.25808391  0.34807942  1
  H  H199  1  0.50000000  0.26302728  0.84687425  1
  H  H200  1  0.50000000  0.26080763  0.02530750  1
  H  H201  1  0.50000000  0.26199201  0.52937463  1
  H  H202  1  0.50000000  0.25896503  0.40533015  1
  H  H203  1  0.50000000  0.26284654  0.90122627  1
  H  H204  1  0.50000000  0.25808866  0.15173382  1
  H  H205  1  0.50000000  0.26296957  0.65290509  1
  H  H206  1  0.50000000  0.25759165  0.27858475  1
  H  H207  1  0.50000000  0.26301652  0.77732271  1
  H  H208  1  0.50000000  0.74045389  0.09463009  1
  H  H209  1  0.50000000  0.73974637  0.60014579  1
  H  H210  1  0.50000000  0.74138123  0.47355593  1
  H  H211  1  0.50000000  0.74058305  0.96937717  1
  H  H212  1  0.50000000  0.73850348  0.22084474  1
  H  H213  1  0.50000000  0.73952230  0.72291801  1
  H  H214  1  0.50000000  0.73857706  0.34710043  1
  H  H215  1  0.50000000  0.73955577  0.84634829  1
  H  H216  1  0.50000000  0.74133221  0.02620568  1
  H  H217  1  0.50000000  0.74070404  0.53062427  1
  H  H218  1  0.50000000  0.74024437  0.40513385  1
  H  H219  1  0.50000000  0.73982487  0.89990834  1
  H  H220  1  0.50000000  0.73899261  0.15286363  1
  H  H221  1  0.50000000  0.73949915  0.65342015  1
  H  H222  1  0.50000000  0.73823205  0.27929578  1
  H  H223  1  0.50000000  0.73948837  0.77678663  1
  H  H224  1  0.50000000  0.48861267  0.10185992  1
  H  H225  1  0.50000000  0.49135989  0.46270068  1
  H  H226  1  0.50000000  0.48814989  0.22343759  1
  H  H227  1  0.50000000  0.48856054  0.34557934  1
  H  H228  1  0.50000000  0.50687133  0.00404940  1
  H  H229  1  0.50000000  0.49151424  0.03721202  1
  H  H230  1  0.50000000  0.48862883  0.39801674  1
  H  H231  1  0.50000000  0.48858315  0.15423986  1
  H  H232  1  0.50000000  0.48818261  0.27639638  1
  H  H233  1  0.50000000  0.56257678  0.00582349  1
  H  H234  1  0.50000000  0.50692906  0.49569772  1
  H  H235  1  0.50000000  0.62307532  0.00633238  1
  H  H236  1  0.50000000  0.56261589  0.49392758  1
  H  H237  1  0.50000000  0.66301494  0.08803754  1
  H  H238  1  0.50000000  0.66431328  0.46768164  1
  H  H239  1  0.50000000  0.66091650  0.21561064  1
  H  H240  1  0.50000000  0.66099494  0.34411680  1
  H  H241  1  0.50000000  0.62316128  0.49343779  1
  H  H242  1  0.50000000  0.66427303  0.03232569  1
  H  H243  1  0.50000000  0.66287514  0.41220961  1
  H  H244  1  0.50000000  0.66143151  0.15599692  1
  H  H245  1  0.50000000  0.66062006  0.28391682  1
