# generated using pymatgen
data_H9C32
_symmetry_space_group_name_H-M   'P 1'
_cell_length_a   20.00000000
_cell_length_b   40.19450000
_cell_length_c   34.61441030
_cell_angle_alpha   90.00000000
_cell_angle_beta   90.00000000
_cell_angle_gamma   90.00000000
_symmetry_Int_Tables_number   1
_chemical_formula_structural   H9C32
_chemical_formula_sum   'H54 C192'
_cell_volume   27826.17829532
_cell_formula_units_Z   6
loop_
 _symmetry_equiv_pos_site_id
 _symmetry_equiv_pos_as_xyz
  1  'x, y, z'
loop_
 _atom_site_type_symbol
 _atom_site_label
 _atom_site_symmetry_multiplicity
 _atom_site_fract_x
 _atom_site_fract_y
 _atom_site_fract_z
 _atom_site_occupancy
  C  C0  1  0.50000000  0.28092313  0.07902637  1
  C  C1  1  0.50000000  0.28754558  0.58377709  1
  C  C2  1  0.50000000  0.28317578  0.46048520  1
  C  C3  1  0.50000000  0.28687656  0.95556950  1
  C  C4  1  0.50000000  0.27679457  0.20598806  1
  C  C5  1  0.50000000  0.28797843  0.70748635  1
  C  C6  1  0.50000000  0.27765377  0.33384421  1
  C  C7  1  0.50000000  0.28800004  0.83208955  1
  C  C8  1  0.50000000  0.30970675  0.10280257  1
  C  C9  1  0.50000000  0.31802886  0.60442918  1
  C  C10  1  0.50000000  0.31423639  0.48039805  1
  C  C11  1  0.50000000  0.31645469  0.97794714  1
  C  C12  1  0.50000000  0.30619325  0.22900910  1
  C  C13  1  0.50000000  0.31789786  0.72897425  1
  C  C14  1  0.50000000  0.30801941  0.35517630  1
  C  C15  1  0.50000000  0.31797507  0.85355214  1
  C  C16  1  0.50000000  0.28323130  0.03933433  1
  C  C17  1  0.50000000  0.28686620  0.54425468  1
  C  C18  1  0.50000000  0.28086040  0.42079981  1
  C  C19  1  0.50000000  0.28751462  0.91604496  1
  C  C20  1  0.50000000  0.27767206  0.16601755  1
  C  C21  1  0.50000000  0.28802817  0.66768465  1
  C  C22  1  0.50000000  0.27677426  0.29387221  1
  C  C23  1  0.50000000  0.28796020  0.79227895  1
  C  C24  1  0.50000000  0.34131530  0.08342152  1
  C  C25  1  0.50000000  0.34835020  0.58334242  1
  C  C26  1  0.50000000  0.34392667  0.45820168  1
  C  C27  1  0.50000000  0.34807197  0.95838392  1
  C  C28  1  0.50000000  0.33716003  0.20853072  1
  C  C29  1  0.50000000  0.34852903  0.70835346  1
  C  C30  1  0.50000000  0.33797025  0.33287176  1
  C  C31  1  0.50000000  0.34853251  0.83286833  1
  C  C32  1  0.50000000  0.37059597  0.10647846  1
  C  C33  1  0.50000000  0.37922185  0.60453837  1
  C  C34  1  0.50000000  0.37592616  0.47768208  1
  C  C35  1  0.50000000  0.37851556  0.98026880  1
  C  C36  1  0.50000000  0.36778756  0.22940636  1
  C  C37  1  0.50000000  0.37928567  0.72924231  1
  C  C38  1  0.50000000  0.36923346  0.35232207  1
  C  C39  1  0.50000000  0.37924424  0.85376890  1
  C  C40  1  0.50000000  0.31429117  0.01940900  1
  C  C41  1  0.50000000  0.31642347  0.52184809  1
  C  C42  1  0.50000000  0.30966886  0.39702959  1
  C  C43  1  0.50000000  0.31799831  0.89535195  1
  C  C44  1  0.50000000  0.30803211  0.14467200  1
  C  C45  1  0.50000000  0.31800816  0.64622603  1
  C  C46  1  0.50000000  0.30617463  0.27082159  1
  C  C47  1  0.50000000  0.31788292  0.77077422  1
  C  C48  1  0.50000000  0.34398453  0.04159701  1
  C  C49  1  0.50000000  0.34805461  0.54137872  1
  C  C50  1  0.50000000  0.34127178  0.41639166  1
  C  C51  1  0.50000000  0.34833594  0.91641234  1
  C  C52  1  0.50000000  0.33799812  0.16696049  1
  C  C53  1  0.50000000  0.34856458  0.66688422  1
  C  C54  1  0.50000000  0.33713468  0.29130869  1
  C  C55  1  0.50000000  0.34850629  0.79139886  1
  C  C56  1  0.50000000  0.40138846  0.08716510  1
  C  C57  1  0.50000000  0.40972012  0.58392708  1
  C  C58  1  0.50000000  0.40362436  0.45190738  1
  C  C59  1  0.50000000  0.41002710  0.95795720  1
  C  C60  1  0.50000000  0.39828117  0.20881670  1
  C  C61  1  0.50000000  0.40986855  0.70851214  1
  C  C62  1  0.50000000  0.39903405  0.33043758  1
  C  C63  1  0.50000000  0.40979297  0.83268424  1
  C  C64  1  0.50000000  0.44034532  0.60539369  1
  C  C65  1  0.50000000  0.44153864  0.97438375  1
  C  C66  1  0.50000000  0.44052780  0.72924409  1
  C  C67  1  0.50000000  0.44042195  0.85297940  1
  C  C68  1  0.50000000  0.37599801  0.02208593  1
  C  C69  1  0.50000000  0.37848422  0.51947959  1
  C  C70  1  0.50000000  0.37054736  0.39334189  1
  C  C71  1  0.50000000  0.37920683  0.89520350  1
  C  C72  1  0.50000000  0.36926511  0.14750788  1
  C  C73  1  0.50000000  0.37927130  0.64597328  1
  C  C74  1  0.50000000  0.36778047  0.27048920  1
  C  C75  1  0.50000000  0.37927171  0.77051767  1
  C  C76  1  0.50000000  0.40369385  0.04789103  1
  C  C77  1  0.50000000  0.41001396  0.54176347  1
  C  C78  1  0.50000000  0.40134864  0.41264747  1
  C  C79  1  0.50000000  0.40972456  0.91579535  1
  C  C80  1  0.50000000  0.39903686  0.16944663  1
  C  C81  1  0.50000000  0.40982045  0.66705065  1
  C  C82  1  0.50000000  0.39828282  0.29107846  1
  C  C83  1  0.50000000  0.40985059  0.79123811  1
  C  C84  1  0.50000000  0.47161202  0.58628094  1
  C  C85  1  0.50000000  0.47192178  0.95436939  1
  C  C86  1  0.50000000  0.47135166  0.70874329  1
  C  C87  1  0.50000000  0.47127854  0.83213463  1
  C  C88  1  0.50000000  0.50224155  0.60647405  1
  C  C89  1  0.50000000  0.50208556  0.97479132  1
  C  C90  1  0.50000000  0.50214549  0.72924387  1
  C  C91  1  0.50000000  0.50221370  0.85213936  1
  C  C92  1  0.50000000  0.44152273  0.52531260  1
  C  C93  1  0.50000000  0.44034252  0.89431009  1
  C  C94  1  0.50000000  0.44043735  0.64672976  1
  C  C95  1  0.50000000  0.44050865  0.77048631  1
  C  C96  1  0.50000000  0.47190715  0.54532591  1
  C  C97  1  0.50000000  0.47161164  0.91341543  1
  C  C98  1  0.50000000  0.47128981  0.66756729  1
  C  C99  1  0.50000000  0.47133271  0.79097305  1
  C  C100  1  0.50000000  0.53277327  0.58575841  1
  C  C101  1  0.50000000  0.53259170  0.95532406  1
  C  C102  1  0.50000000  0.53299513  0.70887757  1
  C  C103  1  0.50000000  0.53301027  0.83191392  1
  C  C104  1  0.50000000  0.56367977  0.60569619  1
  C  C105  1  0.50000000  0.56318688  0.97551891  1
  C  C106  1  0.50000000  0.56389161  0.72927026  1
  C  C107  1  0.50000000  0.56378650  0.85267438  1
  C  C108  1  0.50000000  0.50206100  0.52487056  1
  C  C109  1  0.50000000  0.50225119  0.89321823  1
  C  C110  1  0.50000000  0.50222019  0.64755853  1
  C  C111  1  0.50000000  0.50213386  0.77047468  1
  C  C112  1  0.50000000  0.53256536  0.54434752  1
  C  C113  1  0.50000000  0.53279545  0.91391357  1
  C  C114  1  0.50000000  0.53301304  0.66778183  1
  C  C115  1  0.50000000  0.53299425  0.79082697  1
  C  C116  1  0.50000000  0.59420686  0.58459682  1
  C  C117  1  0.50000000  0.59362559  0.95681904  1
  C  C118  1  0.50000000  0.59459694  0.70862244  1
  C  C119  1  0.50000000  0.59454577  0.83249550  1
  C  C120  1  0.50000000  0.62451509  0.10425215  1
  C  C121  1  0.50000000  0.62495339  0.60489274  1
  C  C122  1  0.50000000  0.62557040  0.48119610  1
  C  C123  1  0.50000000  0.62502926  0.97835847  1
  C  C124  1  0.50000000  0.62386861  0.23000051  1
  C  C125  1  0.50000000  0.62530826  0.72924448  1
  C  C126  1  0.50000000  0.62421615  0.35571962  1
  C  C127  1  0.50000000  0.62516381  0.85359027  1
  C  C128  1  0.50000000  0.56318089  0.52419322  1
  C  C129  1  0.50000000  0.56370708  0.89399359  1
  C  C130  1  0.50000000  0.56377963  0.64701605  1
  C  C131  1  0.50000000  0.56390112  0.77045011  1
  C  C132  1  0.50000000  0.59361260  0.54290611  1
  C  C133  1  0.50000000  0.59423487  0.91511915  1
  C  C134  1  0.50000000  0.59452649  0.66722594  1
  C  C135  1  0.50000000  0.59461330  0.79110826  1
  C  C136  1  0.50000000  0.65468095  0.08263639  1
  C  C137  1  0.50000000  0.65588672  0.58375208  1
  C  C138  1  0.50000000  0.65516575  0.45918978  1
  C  C139  1  0.50000000  0.65584542  0.95749662  1
  C  C140  1  0.50000000  0.65392377  0.20812336  1
  C  C141  1  0.50000000  0.65613023  0.70835001  1
  C  C142  1  0.50000000  0.65409200  0.33359566  1
  C  C143  1  0.50000000  0.65607028  0.83289803  1
  C  C144  1  0.50000000  0.68512283  0.10370041  1
  C  C145  1  0.50000000  0.68645206  0.60421508  1
  C  C146  1  0.50000000  0.68611708  0.47943483  1
  C  C147  1  0.50000000  0.68636552  0.97856967  1
  C  C148  1  0.50000000  0.68452690  0.22894189  1
  C  C149  1  0.50000000  0.68680123  0.72895771  1
  C  C150  1  0.50000000  0.68484065  0.35415935  1
  C  C151  1  0.50000000  0.68667032  0.85367864  1
  C  C152  1  0.50000000  0.62561273  0.01856291  1
  C  C153  1  0.50000000  0.62501474  0.52137927  1
  C  C154  1  0.50000000  0.62448592  0.39549553  1
  C  C155  1  0.50000000  0.62499188  0.89483861  1
  C  C156  1  0.50000000  0.62423239  0.14402988  1
  C  C157  1  0.50000000  0.62513865  0.64614258  1
  C  C158  1  0.50000000  0.62386420  0.26976380  1
  C  C159  1  0.50000000  0.62532385  0.77049946  1
  C  C160  1  0.50000000  0.65522001  0.04056549  1
  C  C161  1  0.50000000  0.65583671  0.54222471  1
  C  C162  1  0.50000000  0.65464460  0.41711207  1
  C  C163  1  0.50000000  0.65592399  0.91598656  1
  C  C164  1  0.50000000  0.65410525  0.16616798  1
  C  C165  1  0.50000000  0.65604146  0.66684382  1
  C  C166  1  0.50000000  0.65391549  0.29164319  1
  C  C167  1  0.50000000  0.65614968  0.79140189  1
  C  C168  1  0.50000000  0.71544616  0.08229180  1
  C  C169  1  0.50000000  0.71648497  0.58245934  1
  C  C170  1  0.50000000  0.71590121  0.45718673  1
  C  C171  1  0.50000000  0.71652036  0.95702484  1
  C  C172  1  0.50000000  0.71468215  0.20728670  1
  C  C173  1  0.50000000  0.71670114  0.70735770  1
  C  C174  1  0.50000000  0.71482542  0.33218578  1
  C  C175  1  0.50000000  0.71665059  0.83223540  1
  C  C176  1  0.50000000  0.68617690  0.02033877  1
  C  C177  1  0.50000000  0.68634586  0.52117800  1
  C  C178  1  0.50000000  0.68509031  0.39605457  1
  C  C179  1  0.50000000  0.68650123  0.89552595  1
  C  C180  1  0.50000000  0.68485510  0.14560190  1
  C  C181  1  0.50000000  0.68663337  0.64605909  1
  C  C182  1  0.50000000  0.68452138  0.27082910  1
  C  C183  1  0.50000000  0.68681668  0.77079441  1
  C  C184  1  0.50000000  0.71596251  0.04257190  1
  C  C185  1  0.50000000  0.71648911  0.54274561  1
  C  C186  1  0.50000000  0.71539946  0.41747387  1
  C  C187  1  0.50000000  0.71652161  0.91730695  1
  C  C188  1  0.50000000  0.71483551  0.16758204  1
  C  C189  1  0.50000000  0.71661375  0.66750650  1
  C  C190  1  0.50000000  0.71467539  0.29248438  1
  C  C191  1  0.50000000  0.71672275  0.79238735  1
  H  H192  1  0.50000000  0.25611490  0.09201901  1
  H  H193  1  0.50000000  0.26387080  0.59919955  1
  H  H194  1  0.50000000  0.26001010  0.47696312  1
  H  H195  1  0.50000000  0.26264217  0.96984544  1
  H  H196  1  0.50000000  0.25238403  0.22003828  1
  H  H197  1  0.50000000  0.26403479  0.72241849  1
  H  H198  1  0.50000000  0.25385344  0.34918128  1
  H  H199  1  0.50000000  0.26407724  0.84703814  1
  H  H200  1  0.50000000  0.26002114  0.02293141  1
  H  H201  1  0.50000000  0.26257928  0.53006682  1
  H  H202  1  0.50000000  0.25607642  0.40775277  1
  H  H203  1  0.50000000  0.26384404  0.90059140  1
  H  H204  1  0.50000000  0.25389257  0.15066628  1
  H  H205  1  0.50000000  0.26410686  0.65275382  1
  H  H206  1  0.50000000  0.25233863  0.27987364  1
  H  H207  1  0.50000000  0.26403374  0.77730973  1
  H  H208  1  0.50000000  0.73919543  0.09766144  1
  H  H209  1  0.50000000  0.74045102  0.59738642  1
  H  H210  1  0.50000000  0.74007923  0.47165213  1
  H  H211  1  0.50000000  0.74044896  0.97207103  1
  H  H212  1  0.50000000  0.73860358  0.22233676  1
  H  H213  1  0.50000000  0.74070083  0.72222254  1
  H  H214  1  0.50000000  0.73888116  0.34691275  1
  H  H215  1  0.50000000  0.74057808  0.84723960  1
  H  H216  1  0.50000000  0.74012160  0.02805693  1
  H  H217  1  0.50000000  0.74043495  0.52774669  1
  H  H218  1  0.50000000  0.73917700  0.40217028  1
  H  H219  1  0.50000000  0.74046861  0.90234864  1
  H  H220  1  0.50000000  0.73887473  0.15281775  1
  H  H221  1  0.50000000  0.74053694  0.65249499  1
  H  H222  1  0.50000000  0.73861185  0.27746572  1
  H  H223  1  0.50000000  0.74070703  0.77749468  1
  H  H224  1  0.50000000  0.42471868  0.10327648  1
  H  H225  1  0.50000000  0.42893861  0.46152661  1
  H  H226  1  0.50000000  0.42197963  0.22410872  1
  H  H227  1  0.50000000  0.42320900  0.34472181  1
  H  H228  1  0.50000000  0.44561613  0.00491651  1
  H  H229  1  0.50000000  0.42903448  0.03834160  1
  H  H230  1  0.50000000  0.42471171  0.39659368  1
  H  H231  1  0.50000000  0.42325103  0.15524560  1
  H  H232  1  0.50000000  0.42195081  0.27574979  1
  H  H233  1  0.50000000  0.50175394  0.00649853  1
  H  H234  1  0.50000000  0.44562718  0.49477232  1
  H  H235  1  0.50000000  0.56185606  0.00709088  1
  H  H236  1  0.50000000  0.50173105  0.49316043  1
  H  H237  1  0.50000000  0.60056160  0.08928140  1
  H  H238  1  0.50000000  0.60190582  0.46580524  1
  H  H239  1  0.50000000  0.59986013  0.21515004  1
  H  H240  1  0.50000000  0.60015073  0.34101692  1
  H  H241  1  0.50000000  0.56188752  0.49262981  1
  H  H242  1  0.50000000  0.60196417  0.03399218  1
  H  H243  1  0.50000000  0.60054737  0.41048885  1
  H  H244  1  0.50000000  0.60015254  0.15871283  1
  H  H245  1  0.50000000  0.59985887  0.28462391  1
