# generated using pymatgen
data_H3C16
_symmetry_space_group_name_H-M   'P 1'
_cell_length_a   20.00000000
_cell_length_b   40.19450000
_cell_length_c   34.38389741
_cell_angle_alpha   90.00000000
_cell_angle_beta   90.00000000
_cell_angle_gamma   90.00000000
_symmetry_Int_Tables_number   1
_chemical_formula_structural   H3C16
_chemical_formula_sum   'H36 C192'
_cell_volume   27640.87128960
_cell_formula_units_Z   12
loop_
 _symmetry_equiv_pos_site_id
 _symmetry_equiv_pos_as_xyz
  1  'x, y, z'
loop_
 _atom_site_type_symbol
 _atom_site_label
 _atom_site_symmetry_multiplicity
 _atom_site_fract_x
 _atom_site_fract_y
 _atom_site_fract_z
 _atom_site_occupancy
  C  C0  1  0.50000000  0.28510362  0.58253477  1
  C  C1  1  0.50000000  0.28507863  0.95776403  1
  C  C2  1  0.50000000  0.28539011  0.70747721  1
  C  C3  1  0.50000000  0.28535044  0.83239575  1
  C  C4  1  0.50000000  0.31506752  0.60373093  1
  C  C5  1  0.50000000  0.31510099  0.97799630  1
  C  C6  1  0.50000000  0.31534238  0.72892573  1
  C  C7  1  0.50000000  0.31524736  0.85391010  1
  C  C8  1  0.50000000  0.28515313  0.54208195  1
  C  C9  1  0.50000000  0.28506594  0.91730885  1
  C  C10  1  0.50000000  0.28538582  0.66741882  1
  C  C11  1  0.50000000  0.28539454  0.79233053  1
  C  C12  1  0.50000000  0.34595311  0.58316368  1
  C  C13  1  0.50000000  0.34574254  0.95824520  1
  C  C14  1  0.50000000  0.34601265  0.70824370  1
  C  C15  1  0.50000000  0.34593756  0.83334160  1
  C  C16  1  0.50000000  0.37790566  0.10479811  1
  C  C17  1  0.50000000  0.37692416  0.60422932  1
  C  C18  1  0.50000000  0.37839428  0.48026793  1
  C  C19  1  0.50000000  0.37731714  0.97909068  1
  C  C20  1  0.50000000  0.37789826  0.22998257  1
  C  C21  1  0.50000000  0.37692390  0.72920172  1
  C  C22  1  0.50000000  0.37794056  0.35512748  1
  C  C23  1  0.50000000  0.37693543  0.85423274  1
  C  C24  1  0.50000000  0.31518614  0.52185982  1
  C  C25  1  0.50000000  0.31504276  0.89611737  1
  C  C26  1  0.50000000  0.31529611  0.64595482  1
  C  C27  1  0.50000000  0.31536098  0.77096262  1
  C  C28  1  0.50000000  0.34581956  0.54164282  1
  C  C29  1  0.50000000  0.34591469  0.91671077  1
  C  C30  1  0.50000000  0.34596830  0.66658014  1
  C  C31  1  0.50000000  0.34601147  0.79167400  1
  C  C32  1  0.50000000  0.40783030  0.08323637  1
  C  C33  1  0.50000000  0.40776813  0.58364280  1
  C  C34  1  0.50000000  0.40800129  0.45895351  1
  C  C35  1  0.50000000  0.40787965  0.95800965  1
  C  C36  1  0.50000000  0.40786679  0.20849217  1
  C  C37  1  0.50000000  0.40763758  0.70840612  1
  C  C38  1  0.50000000  0.40789855  0.33365887  1
  C  C39  1  0.50000000  0.40762931  0.83333917  1
  C  C40  1  0.50000000  0.43846234  0.10393155  1
  C  C41  1  0.50000000  0.43843295  0.60439884  1
  C  C42  1  0.50000000  0.43873498  0.47953984  1
  C  C43  1  0.50000000  0.43854273  0.97887034  1
  C  C44  1  0.50000000  0.43850392  0.22916490  1
  C  C45  1  0.50000000  0.43836445  0.72917274  1
  C  C46  1  0.50000000  0.43852340  0.35435869  1
  C  C47  1  0.50000000  0.43839544  0.85400651  1
  C  C48  1  0.50000000  0.37831239  0.01967179  1
  C  C49  1  0.50000000  0.37738982  0.52083318  1
  C  C50  1  0.50000000  0.37795694  0.39522042  1
  C  C51  1  0.50000000  0.37690192  0.89569060  1
  C  C52  1  0.50000000  0.37791415  0.14489878  1
  C  C53  1  0.50000000  0.37695542  0.64568427  1
  C  C54  1  0.50000000  0.37790697  0.27007110  1
  C  C55  1  0.50000000  0.37692188  0.77072720  1
  C  C56  1  0.50000000  0.40792899  0.04100819  1
  C  C57  1  0.50000000  0.40791724  0.54193117  1
  C  C58  1  0.50000000  0.40789790  0.41673043  1
  C  C59  1  0.50000000  0.40773870  0.91629171  1
  C  C60  1  0.50000000  0.40787477  0.16636449  1
  C  C61  1  0.50000000  0.40764103  0.66659438  1
  C  C62  1  0.50000000  0.40788362  0.29153617  1
  C  C63  1  0.50000000  0.40763222  0.79152892  1
  C  C64  1  0.50000000  0.46938309  0.08299557  1
  C  C65  1  0.50000000  0.46931497  0.58353902  1
  C  C66  1  0.50000000  0.46943637  0.45855171  1
  C  C67  1  0.50000000  0.46935743  0.95793448  1
  C  C68  1  0.50000000  0.46937955  0.20818403  1
  C  C69  1  0.50000000  0.46925181  0.70834475  1
  C  C70  1  0.50000000  0.46940280  0.33339810  1
  C  C71  1  0.50000000  0.46925688  0.83315792  1
  C  C72  1  0.50000000  0.49999230  0.10380985  1
  C  C73  1  0.50000000  0.50000326  0.60434180  1
  C  C74  1  0.50000000  0.50000162  0.47940268  1
  C  C75  1  0.50000000  0.49999390  0.97875952  1
  C  C76  1  0.50000000  0.49999733  0.22901367  1
  C  C77  1  0.50000000  0.49999842  0.72911403  1
  C  C78  1  0.50000000  0.50000315  0.35421447  1
  C  C79  1  0.50000000  0.49999412  0.85391158  1
  C  C80  1  0.50000000  0.43867912  0.02042694  1
  C  C81  1  0.50000000  0.43859240  0.52108503  1
  C  C82  1  0.50000000  0.43851098  0.39604777  1
  C  C83  1  0.50000000  0.43841075  0.89554995  1
  C  C84  1  0.50000000  0.43849444  0.14564008  1
  C  C85  1  0.50000000  0.43840871  0.64593799  1
  C  C86  1  0.50000000  0.43851173  0.27084896  1
  C  C87  1  0.50000000  0.43836263  0.77077004  1
  C  C88  1  0.50000000  0.46940389  0.04142030  1
  C  C89  1  0.50000000  0.46938639  0.54202809  1
  C  C90  1  0.50000000  0.46941068  0.41699015  1
  C  C91  1  0.50000000  0.46929554  0.91641655  1
  C  C92  1  0.50000000  0.46938498  0.16659418  1
  C  C93  1  0.50000000  0.46926280  0.66680089  1
  C  C94  1  0.50000000  0.46939125  0.29181458  1
  C  C95  1  0.50000000  0.46924765  0.79161284  1
  C  C96  1  0.50000000  0.53059960  0.08299430  1
  C  C97  1  0.50000000  0.53069177  0.58354194  1
  C  C98  1  0.50000000  0.53056683  0.45855121  1
  C  C99  1  0.50000000  0.53063126  0.95793893  1
  C  C100  1  0.50000000  0.53061288  0.20818188  1
  C  C101  1  0.50000000  0.53074570  0.70834600  1
  C  C102  1  0.50000000  0.53060335  0.33339753  1
  C  C103  1  0.50000000  0.53073269  0.83316192  1
  C  C104  1  0.50000000  0.56151770  0.10393383  1
  C  C105  1  0.50000000  0.56157265  0.60440489  1
  C  C106  1  0.50000000  0.56126880  0.47953930  1
  C  C107  1  0.50000000  0.56144357  0.97887441  1
  C  C108  1  0.50000000  0.56149107  0.22916267  1
  C  C109  1  0.50000000  0.56162968  0.72918061  1
  C  C110  1  0.50000000  0.56147903  0.35435901  1
  C  C111  1  0.50000000  0.56159387  0.85401319  1
  C  C112  1  0.50000000  0.49999006  0.02056909  1
  C  C113  1  0.50000000  0.50000219  0.52120042  1
  C  C114  1  0.50000000  0.50000353  0.39617763  1
  C  C115  1  0.50000000  0.49999040  0.89562762  1
  C  C116  1  0.50000000  0.49999432  0.14577951  1
  C  C117  1  0.50000000  0.50000258  0.64605691  1
  C  C118  1  0.50000000  0.50000073  0.27097728  1
  C  C119  1  0.50000000  0.49999655  0.77085223  1
  C  C120  1  0.50000000  0.53057532  0.04141910  1
  C  C121  1  0.50000000  0.53061790  0.54203011  1
  C  C122  1  0.50000000  0.53059596  0.41698900  1
  C  C123  1  0.50000000  0.53068485  0.91642198  1
  C  C124  1  0.50000000  0.53060392  0.16659361  1
  C  C125  1  0.50000000  0.53074034  0.66680271  1
  C  C126  1  0.50000000  0.53061305  0.29181264  1
  C  C127  1  0.50000000  0.53074301  0.79161800  1
  C  C128  1  0.50000000  0.59214485  0.08323869  1
  C  C129  1  0.50000000  0.59223664  0.58364774  1
  C  C130  1  0.50000000  0.59200385  0.45895486  1
  C  C131  1  0.50000000  0.59210626  0.95801895  1
  C  C132  1  0.50000000  0.59212708  0.20848594  1
  C  C133  1  0.50000000  0.59235949  0.70841759  1
  C  C134  1  0.50000000  0.59209955  0.33365494  1
  C  C135  1  0.50000000  0.59236385  0.83335470  1
  C  C136  1  0.50000000  0.62207479  0.10479097  1
  C  C137  1  0.50000000  0.62307930  0.60423373  1
  C  C138  1  0.50000000  0.62161029  0.48027266  1
  C  C139  1  0.50000000  0.62266618  0.97909645  1
  C  C140  1  0.50000000  0.62209950  0.22997318  1
  C  C141  1  0.50000000  0.62307205  0.72921575  1
  C  C142  1  0.50000000  0.62205768  0.35511341  1
  C  C143  1  0.50000000  0.62305478  0.85424724  1
  C  C144  1  0.50000000  0.56129888  0.02042753  1
  C  C145  1  0.50000000  0.56141112  0.52108536  1
  C  C146  1  0.50000000  0.56149590  0.39604516  1
  C  C147  1  0.50000000  0.56157338  0.89555926  1
  C  C148  1  0.50000000  0.56149278  0.14563921  1
  C  C149  1  0.50000000  0.56159470  0.64594400  1
  C  C150  1  0.50000000  0.56149714  0.27085232  1
  C  C151  1  0.50000000  0.56162844  0.77077877  1
  C  C152  1  0.50000000  0.59204733  0.04100985  1
  C  C153  1  0.50000000  0.59208619  0.54193531  1
  C  C154  1  0.50000000  0.59211210  0.41672865  1
  C  C155  1  0.50000000  0.59225032  0.91630207  1
  C  C156  1  0.50000000  0.59211470  0.16635706  1
  C  C157  1  0.50000000  0.59235880  0.66660442  1
  C  C158  1  0.50000000  0.59212540  0.29153870  1
  C  C159  1  0.50000000  0.59235834  0.79154388  1
  C  C160  1  0.50000000  0.65405185  0.58317054  1
  C  C161  1  0.50000000  0.65424626  0.95825171  1
  C  C162  1  0.50000000  0.65398400  0.70825612  1
  C  C163  1  0.50000000  0.65405189  0.83335733  1
  C  C164  1  0.50000000  0.68493738  0.60373883  1
  C  C165  1  0.50000000  0.68488686  0.97800110  1
  C  C166  1  0.50000000  0.68465311  0.72893978  1
  C  C167  1  0.50000000  0.68474275  0.85392054  1
  C  C168  1  0.50000000  0.62166727  0.01967748  1
  C  C169  1  0.50000000  0.62261367  0.52083945  1
  C  C170  1  0.50000000  0.62204828  0.39520047  1
  C  C171  1  0.50000000  0.62308553  0.89569714  1
  C  C172  1  0.50000000  0.62207542  0.14488973  1
  C  C173  1  0.50000000  0.62304161  0.64568994  1
  C  C174  1  0.50000000  0.62209323  0.27006505  1
  C  C175  1  0.50000000  0.62306933  0.77074222  1
  C  C176  1  0.50000000  0.65418472  0.54164880  1
  C  C177  1  0.50000000  0.65407261  0.91672098  1
  C  C178  1  0.50000000  0.65402699  0.66658880  1
  C  C179  1  0.50000000  0.65398078  0.79168825  1
  C  C180  1  0.50000000  0.71490171  0.58254054  1
  C  C181  1  0.50000000  0.71491671  0.95778050  1
  C  C182  1  0.50000000  0.71460428  0.70748924  1
  C  C183  1  0.50000000  0.71464322  0.83241440  1
  C  C184  1  0.50000000  0.68481607  0.52186160  1
  C  C185  1  0.50000000  0.68494776  0.89613211  1
  C  C186  1  0.50000000  0.68470242  0.64596317  1
  C  C187  1  0.50000000  0.68463425  0.77098294  1
  C  C188  1  0.50000000  0.71484830  0.54208576  1
  C  C189  1  0.50000000  0.71492172  0.91732833  1
  C  C190  1  0.50000000  0.71461130  0.66742967  1
  C  C191  1  0.50000000  0.71460043  0.79235544  1
  H  H192  1  0.50000000  0.26120246  0.59766647  1
  H  H193  1  0.50000000  0.26144103  0.97366574  1
  H  H194  1  0.50000000  0.26141530  0.72240501  1
  H  H195  1  0.50000000  0.26137740  0.84737417  1
  H  H196  1  0.50000000  0.26152718  0.52616740  1
  H  H197  1  0.50000000  0.26118271  0.90216339  1
  H  H198  1  0.50000000  0.26143347  0.65241375  1
  H  H199  1  0.50000000  0.26143323  0.77735926  1
  H  H200  1  0.50000000  0.73880511  0.59766958  1
  H  H201  1  0.50000000  0.73856724  0.97366061  1
  H  H202  1  0.50000000  0.73857888  0.72241668  1
  H  H203  1  0.50000000  0.73861056  0.84739916  1
  H  H204  1  0.50000000  0.73847106  0.52616413  1
  H  H205  1  0.50000000  0.73880215  0.90217573  1
  H  H206  1  0.50000000  0.73856652  0.65242714  1
  H  H207  1  0.50000000  0.73855481  0.77738645  1
  H  H208  1  0.50000000  0.31429056  0.00978270  1
  H  H209  1  0.50000000  0.35382776  0.09001512  1
  H  H210  1  0.50000000  0.35496570  0.46443888  1
  H  H211  1  0.50000000  0.35393108  0.21495520  1
  H  H212  1  0.50000000  0.35400518  0.34005477  1
  H  H213  1  0.50000000  0.31441701  0.49008016  1
  H  H214  1  0.50000000  0.35487714  0.03550285  1
  H  H215  1  0.50000000  0.35391475  0.41007428  1
  H  H216  1  0.50000000  0.35398415  0.15999623  1
  H  H217  1  0.50000000  0.35395398  0.28513045  1
  H  H218  1  0.50000000  0.64614485  0.08998993  1
  H  H219  1  0.50000000  0.64503987  0.46444836  1
  H  H220  1  0.50000000  0.64607218  0.21495278  1
  H  H221  1  0.50000000  0.64599681  0.34004870  1
  H  H222  1  0.50000000  0.68568285  0.00977745  1
  H  H223  1  0.50000000  0.64510320  0.03550953  1
  H  H224  1  0.50000000  0.64609757  0.41006058  1
  H  H225  1  0.50000000  0.64600648  0.15998375  1
  H  H226  1  0.50000000  0.64604062  0.28512154  1
  H  H227  1  0.50000000  0.68558393  0.49008043  1
